data_image0
_chemical_formula_structural       Zn16H56C96O56
_chemical_formula_sum              "Zn16 H56 C96 O56"
_cell_length_a       14.565
_cell_length_b       15.855
_cell_length_c       18.856
_cell_angle_alpha    90.398
_cell_angle_beta     90.114
_cell_angle_gamma    90.004

_space_group_name_H-M_alt    "P 1"
_space_group_IT_number       1

loop_
  _space_group_symop_operation_xyz
  'x, y, z'

loop_
  _atom_site_type_symbol
  _atom_site_label
  _atom_site_symmetry_multiplicity
  _atom_site_fract_x
  _atom_site_fract_y
  _atom_site_fract_z
  _atom_site_occupancy
  Zn  Zn1       1.0  0.52788  0.42992  0.04018  1.0000
  Zn  Zn2       1.0  0.34347  0.36341  0.03424  1.0000
  Zn  Zn3       1.0  0.46927  0.07102  0.53826  1.0000
  Zn  Zn4       1.0  0.65612  0.13676  0.53394  1.0000
  Zn  Zn5       1.0  0.46859  0.56997  0.95675  1.0000
  Zn  Zn6       1.0  0.65569  0.63422  0.96285  1.0000
  Zn  Zn7       1.0  0.53076  0.92867  0.45859  1.0000
  Zn  Zn8       1.0  0.34391  0.86311  0.46301  1.0000
  Zn  Zn9       1.0  0.96901  0.92649  0.95922  1.0000
  Zn  Zn10      1.0  0.15606  0.86245  0.96346  1.0000
  Zn  Zn11      1.0  0.03139  0.56991  0.45696  1.0000
  Zn  Zn12      1.0  0.84423  0.63420  0.46280  1.0000
  Zn  Zn13      1.0  0.03086  0.07060  0.03807  1.0000
  Zn  Zn14      1.0  0.84390  0.13595  0.03381  1.0000
  Zn  Zn15      1.0  0.97214  0.42986  0.54021  1.0000
  Zn  Zn16      1.0  0.15663  0.36351  0.53442  1.0000
  H   H1        1.0  0.34785  0.50827  0.03321  1.0000
  H   H2        1.0  0.63337  0.29771  0.86425  1.0000
  H   H3        1.0  0.65951  0.23569  0.74314  1.0000
  H   H4        1.0  0.38791  0.12931  0.74586  1.0000
  H   H5        1.0  0.36165  0.19131  0.86628  1.0000
  H   H6        1.0  0.11084  0.61738  0.01121  1.0000
  H   H7        1.0  0.05268  0.35192  0.01663  1.0000
  H   H8        1.0  0.65130  0.99220  0.53382  1.0000
  H   H9        1.0  0.36681  0.20217  0.36252  1.0000
  H   H10       1.0  0.33985  0.26536  0.24258  1.0000
  H   H11       1.0  0.61216  0.37028  0.24643  1.0000
  H   H12       1.0  0.63935  0.30679  0.36556  1.0000
  H   H13       1.0  0.88834  0.88191  0.50988  1.0000
  H   H14       1.0  0.94724  0.14732  0.51773  1.0000
  H   H15       1.0  0.64868  0.49026  0.96356  1.0000
  H   H16       1.0  0.36480  0.70290  0.13268  1.0000
  H   H17       1.0  0.33956  0.76504  0.25383  1.0000
  H   H18       1.0  0.61211  0.86934  0.25070  1.0000
  H   H19       1.0  0.63750  0.80711  0.13025  1.0000
  H   H20       1.0  0.88816  0.38108  0.98563  1.0000
  H   H21       1.0  0.94634  0.64653  0.00000  1.0000
  H   H22       1.0  0.34861  0.00760  0.46309  1.0000
  H   H23       1.0  0.63310  0.79698  0.63494  1.0000
  H   H24       1.0  0.65950  0.73308  0.75467  1.0000
  H   H25       1.0  0.38699  0.62870  0.74986  1.0000
  H   H26       1.0  0.36044  0.69263  0.63088  1.0000
  H   H27       1.0  0.11154  0.11766  0.48679  1.0000
  H   H28       1.0  0.05261  0.85228  0.47889  1.0000
  H   H29       1.0  0.15087  0.00632  0.96322  1.0000
  H   H30       1.0  0.86623  0.79532  0.13427  1.0000
  H   H31       1.0  0.83986  0.73183  0.25412  1.0000
  H   H32       1.0  0.11292  0.62863  0.25083  1.0000
  H   H33       1.0  0.13946  0.69225  0.13174  1.0000
  H   H34       1.0  0.38817  0.11616  0.98608  1.0000
  H   H35       1.0  0.44784  0.85090  0.00000  1.0000
  H   H36       1.0  0.85107  0.49028  0.46356  1.0000
  H   H37       1.0  0.13508  0.70220  0.63347  1.0000
  H   H38       1.0  0.15985  0.76351  0.75507  1.0000
  H   H39       1.0  0.88796  0.86923  0.75040  1.0000
  H   H40       1.0  0.86295  0.80764  0.62958  1.0000
  H   H41       1.0  0.61154  0.38155  0.48595  1.0000
  H   H42       1.0  0.55338  0.64698  0.47990  1.0000
  H   H43       1.0  0.84942  0.99160  0.03399  1.0000
  H   H44       1.0  0.13375  0.20104  0.86235  1.0000
  H   H45       1.0  0.16049  0.26467  0.74264  1.0000
  H   H46       1.0  0.88808  0.36936  0.74615  1.0000
  H   H47       1.0  0.86104  0.30525  0.86497  1.0000
  H   H48       1.0  0.61212  0.88114  0.01034  1.0000
  H   H49       1.0  0.55249  0.14642  0.01706  1.0000
  H   H50       1.0  0.15232  0.50837  0.53346  1.0000
  H   H51       1.0  0.86680  0.29802  0.36347  1.0000
  H   H52       1.0  0.84087  0.23600  0.24225  1.0000
  H   H53       1.0  0.11224  0.12914  0.24628  1.0000
  H   H54       1.0  0.13829  0.19113  0.36681  1.0000
  H   H55       1.0  0.38905  0.61795  0.51082  1.0000
  H   H56       1.0  0.44720  0.35250  0.51692  1.0000
  C   C1        1.0  0.47602  0.29284  0.94045  1.0000
  C   C2        1.0  0.49558  0.24913  0.87183  1.0000
  C   C3        1.0  0.58031  0.26054  0.83788  1.0000
  C   C4        1.0  0.59476  0.22621  0.77071  1.0000
  C   C5        1.0  0.52475  0.17994  0.73704  1.0000
  C   C6        1.0  0.44121  0.16618  0.77213  1.0000
  C   C7        1.0  0.42664  0.20066  0.83906  1.0000
  C   C8        1.0  0.53727  0.14786  0.66315  1.0000
  C   C9        1.0  0.18975  0.46621  0.03303  1.0000
  C   C10       1.0  0.09119  0.48294  0.01604  1.0000
  C   C11       1.0  0.06156  0.56613  0.00569  1.0000
  C   C12       1.0  0.02857  0.41615  0.00862  1.0000
  C   C13       1.0  0.52448  0.20618  0.43867  1.0000
  C   C14       1.0  0.50497  0.24990  0.37051  1.0000
  C   C15       1.0  0.41984  0.23922  0.33660  1.0000
  C   C16       1.0  0.40494  0.27424  0.27013  1.0000
  C   C17       1.0  0.47485  0.32061  0.23721  1.0000
  C   C18       1.0  0.55892  0.33344  0.27221  1.0000
  C   C19       1.0  0.57400  0.29812  0.33840  1.0000
  C   C20       1.0  0.46159  0.35367  0.16411  1.0000
  C   C21       1.0  0.80981  0.03352  0.53296  1.0000
  C   C22       1.0  0.90829  0.01639  0.51592  1.0000
  C   C23       1.0  0.93771  0.93307  0.50489  1.0000
  C   C24       1.0  0.97111  0.08299  0.50918  1.0000
  C   C25       1.0  0.52192  0.70650  0.05612  1.0000
  C   C26       1.0  0.50304  0.75034  0.12486  1.0000
  C   C27       1.0  0.41830  0.73961  0.15897  1.0000
  C   C28       1.0  0.40434  0.77404  0.22617  1.0000
  C   C29       1.0  0.47483  0.81979  0.25976  1.0000
  C   C30       1.0  0.55840  0.83287  0.22452  1.0000
  C   C31       1.0  0.57249  0.79825  0.15756  1.0000
  C   C32       1.0  0.46262  0.85197  0.33367  1.0000
  C   C33       1.0  0.80922  0.53238  0.96398  1.0000
  C   C34       1.0  0.90781  0.51551  0.98088  1.0000
  C   C35       1.0  0.93746  0.43233  0.99118  1.0000
  C   C36       1.0  0.97045  0.58230  0.00000  1.0000
  C   C37       1.0  0.47554  0.79355  0.55832  1.0000
  C   C38       1.0  0.49487  0.74950  0.62640  1.0000
  C   C39       1.0  0.57988  0.75987  0.66058  1.0000
  C   C40       1.0  0.59449  0.72443  0.72695  1.0000
  C   C41       1.0  0.52437  0.67806  0.75961  1.0000
  C   C42       1.0  0.44043  0.66555  0.72434  1.0000
  C   C43       1.0  0.42569  0.70117  0.65822  1.0000
  C   C44       1.0  0.53715  0.64472  0.83274  1.0000
  C   C45       1.0  0.19011  0.96616  0.46387  1.0000
  C   C46       1.0  0.09158  0.98321  0.48077  1.0000
  C   C47       1.0  0.06215  0.06653  0.49177  1.0000
  C   C48       1.0  0.02875  0.91661  0.48747  1.0000
  C   C49       1.0  0.02402  0.79246  0.05861  1.0000
  C   C50       1.0  0.00475  0.74843  0.12658  1.0000
  C   C51       1.0  0.91955  0.75855  0.16028  1.0000
  C   C52       1.0  0.90497  0.72337  0.22669  1.0000
  C   C53       1.0  0.97528  0.67748  0.25977  1.0000
  C   C54       1.0  0.05939  0.66515  0.22494  1.0000
  C   C55       1.0  0.07412  0.70054  0.15879  1.0000
  C   C56       1.0  0.96260  0.64448  0.33293  1.0000
  C   C57       1.0  0.30995  0.96436  0.96381  1.0000
  C   C58       1.0  0.40852  0.98173  0.98066  1.0000
  C   C59       1.0  0.43775  0.06519  0.99132  1.0000
  C   C60       1.0  0.47155  0.91534  0.00000  1.0000
  C   C61       1.0  0.97824  0.70658  0.55610  1.0000
  C   C62       1.0  0.99714  0.75028  0.62493  1.0000
  C   C63       1.0  0.08164  0.73902  0.65955  1.0000
  C   C64       1.0  0.09532  0.77298  0.72698  1.0000
  C   C65       1.0  0.02484  0.81885  0.76024  1.0000
  C   C66       1.0  0.94160  0.83261  0.72446  1.0000
  C   C67       1.0  0.92775  0.79838  0.65729  1.0000
  C   C68       1.0  0.03671  0.85046  0.83437  1.0000
  C   C69       1.0  0.69046  0.53270  0.46394  1.0000
  C   C70       1.0  0.59192  0.51596  0.48084  1.0000
  C   C71       1.0  0.56229  0.43282  0.49134  1.0000
  C   C72       1.0  0.52931  0.58277  0.48804  1.0000
  C   C73       1.0  0.97629  0.20467  0.93825  1.0000
  C   C74       1.0  0.99550  0.24854  0.87015  1.0000
  C   C75       1.0  0.08062  0.23811  0.83640  1.0000
  C   C76       1.0  0.09542  0.27341  0.77006  1.0000
  C   C77       1.0  0.02547  0.31989  0.73709  1.0000
  C   C78       1.0  0.94139  0.33244  0.77193  1.0000
  C   C79       1.0  0.92639  0.29678  0.83796  1.0000
  C   C80       1.0  0.03865  0.35338  0.66413  1.0000
  C   C81       1.0  0.69030  0.03300  0.03293  1.0000
  C   C82       1.0  0.59180  0.01559  0.01582  1.0000
  C   C83       1.0  0.56259  0.93213  0.00509  1.0000
  C   C84       1.0  0.52878  0.08198  0.00874  1.0000
  C   C85       1.0  0.02399  0.29287  0.44043  1.0000
  C   C86       1.0  0.00448  0.24922  0.37171  1.0000
  C   C87       1.0  0.91986  0.26076  0.33735  1.0000
  C   C88       1.0  0.90553  0.22641  0.27013  1.0000
  C   C89       1.0  0.97553  0.18000  0.23680  1.0000
  C   C90       1.0  0.05896  0.16613  0.27229  1.0000
  C   C91       1.0  0.07341  0.20063  0.33928  1.0000
  C   C92       1.0  0.96301  0.14784  0.16289  1.0000
  C   C93       1.0  0.31023  0.46673  0.53305  1.0000
  C   C94       1.0  0.40868  0.48351  0.51599  1.0000
  C   C95       1.0  0.43828  0.56666  0.50545  1.0000
  C   C96       1.0  0.47127  0.41670  0.50876  1.0000
  O   O1        1.0  0.40319  0.48083  0.00855  1.0000
  O   O2        1.0  0.53984  0.33670  0.96886  1.0000
  O   O3        1.0  0.39462  0.28466  0.96526  1.0000
  O   O4        1.0  0.46898  0.10754  0.63581  1.0000
  O   O5        1.0  0.61298  0.16318  0.63214  1.0000
  O   O6        1.0  0.21470  0.38750  0.02800  1.0000
  O   O7        1.0  0.24231  0.52636  0.04957  1.0000
  O   O8        1.0  0.59581  0.01921  0.50913  1.0000
  O   O9        1.0  0.46030  0.16270  0.46630  1.0000
  O   O10       1.0  0.60585  0.21429  0.46388  1.0000
  O   O11       1.0  0.52870  0.39614  0.13802  1.0000
  O   O12       1.0  0.38648  0.33705  0.13231  1.0000
  O   O13       1.0  0.78495  0.11219  0.52797  1.0000
  O   O14       1.0  0.75728  0.97369  0.54949  1.0000
  O   O15       1.0  0.59402  0.51842  0.98812  1.0000
  O   O16       1.0  0.45741  0.66312  0.02803  1.0000
  O   O17       1.0  0.60319  0.71416  0.03097  1.0000
  O   O18       1.0  0.53099  0.89226  0.36096  1.0000
  O   O19       1.0  0.38696  0.83675  0.36478  1.0000
  O   O20       1.0  0.78463  0.61125  0.96908  1.0000
  O   O21       1.0  0.75641  0.47246  0.94750  1.0000
  O   O22       1.0  0.40414  0.98059  0.48772  1.0000
  O   O23       1.0  0.53971  0.83714  0.53078  1.0000
  O   O24       1.0  0.39417  0.78556  0.53306  1.0000
  O   O25       1.0  0.46890  0.60384  0.85894  1.0000
  O   O26       1.0  0.61281  0.65953  0.86434  1.0000
  O   O27       1.0  0.21504  0.88752  0.46888  1.0000
  O   O28       1.0  0.24261  0.00000  0.44743  1.0000
  O   O29       1.0  0.09563  0.97942  0.98802  1.0000
  O   O30       1.0  0.95926  0.83534  0.03075  1.0000
  O   O31       1.0  0.10550  0.78533  0.03380  1.0000
  O   O32       1.0  0.03099  0.60377  0.35934  1.0000
  O   O33       1.0  0.88701  0.65939  0.36434  1.0000
  O   O34       1.0  0.28518  0.88565  0.96899  1.0000
  O   O35       1.0  0.25723  0.00000  0.94728  1.0000
  O   O36       1.0  0.90588  0.51838  0.48812  1.0000
  O   O37       1.0  0.04269  0.66318  0.52813  1.0000
  O   O38       1.0  0.89694  0.71428  0.53080  1.0000
  O   O39       1.0  0.96900  0.89205  0.86103  1.0000
  O   O40       1.0  0.11148  0.83343  0.86633  1.0000
  O   O41       1.0  0.71526  0.61151  0.46906  1.0000
  O   O42       1.0  0.74308  0.47272  0.44745  1.0000
  O   O43       1.0  0.90470  0.01831  0.00910  1.0000
  O   O44       1.0  0.04111  0.16225  0.96641  1.0000
  O   O45       1.0  0.89466  0.21167  0.96291  1.0000
  O   O46       1.0  0.97151  0.39603  0.63806  1.0000
  O   O47       1.0  0.11370  0.33697  0.63241  1.0000
  O   O48       1.0  0.71499  0.11171  0.02784  1.0000
  O   O49       1.0  0.74302  0.97336  0.04963  1.0000
  O   O50       1.0  0.09683  0.48084  0.50883  1.0000
  O   O51       1.0  0.96017  0.33668  0.46873  1.0000
  O   O52       1.0  0.10542  0.28469  0.46544  1.0000
  O   O53       1.0  0.03119  0.10743  0.13572  1.0000
  O   O54       1.0  0.88724  0.16321  0.13172  1.0000
  O   O55       1.0  0.28529  0.38801  0.52805  1.0000
  O   O56       1.0  0.25773  0.52685  0.54963  1.0000
