data_image0
_chemical_formula_structural       Zn8H152C176N40O32
_chemical_formula_sum              "Zn8 H152 C176 N40 O32"
_cell_length_a       23.442
_cell_length_b       23.974
_cell_length_c       14.059
_cell_angle_alpha    112.345
_cell_angle_beta     89.896
_cell_angle_gamma    118.644

_space_group_name_H-M_alt    "P 1"
_space_group_IT_number       1

loop_
  _space_group_symop_operation_xyz
  'x, y, z'

loop_
  _atom_site_type_symbol
  _atom_site_label
  _atom_site_symmetry_multiplicity
  _atom_site_fract_x
  _atom_site_fract_y
  _atom_site_fract_z
  _atom_site_occupancy
  Zn  Zn1       1.0  0.16817  0.35880  0.75529  1.0000
  Zn  Zn2       1.0  0.16816  0.85875  0.75525  1.0000
  Zn  Zn3       1.0  0.66818  0.35876  0.75523  1.0000
  Zn  Zn4       1.0  0.66817  0.85872  0.75500  1.0000
  Zn  Zn5       1.0  0.19290  0.36274  0.25987  1.0000
  Zn  Zn6       1.0  0.19292  0.86277  0.25999  1.0000
  Zn  Zn7       1.0  0.69292  0.36272  0.25989  1.0000
  Zn  Zn8       1.0  0.69295  0.86275  0.26002  1.0000
  H   H1        1.0  0.26889  0.22037  0.16551  1.0000
  H   H2        1.0  0.26897  0.72043  0.16557  1.0000
  H   H3        1.0  0.76896  0.22035  0.16550  1.0000
  H   H4        1.0  0.76903  0.72041  0.16557  1.0000
  H   H5        1.0  0.07780  0.10301  0.95457  1.0000
  H   H6        1.0  0.07785  0.60305  0.95468  1.0000
  H   H7        1.0  0.57783  0.10299  0.95465  1.0000
  H   H8        1.0  0.57789  0.60303  0.95476  1.0000
  H   H9        1.0  0.09935  0.00478  0.85817  1.0000
  H   H10       1.0  0.09941  0.50483  0.85826  1.0000
  H   H11       1.0  0.59937  0.00476  0.85820  1.0000
  H   H12       1.0  0.59944  0.50480  0.85829  1.0000
  H   H13       1.0  0.19883  0.28077  0.53428  1.0000
  H   H14       1.0  0.19884  0.78075  0.53427  1.0000
  H   H15       1.0  0.69883  0.28074  0.53422  1.0000
  H   H16       1.0  0.69885  0.78072  0.53421  1.0000
  H   H17       1.0  0.28103  0.49625  0.73598  1.0000
  H   H18       1.0  0.28101  0.99623  0.73597  1.0000
  H   H19       1.0  0.78103  0.49622  0.73593  1.0000
  H   H20       1.0  0.78102  0.99620  0.73590  1.0000
  H   H21       1.0  0.34653  0.48494  0.57036  1.0000
  H   H22       1.0  0.34654  0.98493  0.57038  1.0000
  H   H23       1.0  0.84655  0.48490  0.57033  1.0000
  H   H24       1.0  0.84656  0.98490  0.57035  1.0000
  H   H25       1.0  0.30815  0.37133  0.38340  1.0000
  H   H26       1.0  0.30819  0.87134  0.38352  1.0000
  H   H27       1.0  0.80817  0.37130  0.38345  1.0000
  H   H28       1.0  0.80822  0.87131  0.38348  1.0000
  H   H29       1.0  0.26239  0.28827  0.38651  1.0000
  H   H30       1.0  0.26241  0.78828  0.38650  1.0000
  H   H31       1.0  0.76242  0.28824  0.38648  1.0000
  H   H32       1.0  0.76245  0.78825  0.38647  1.0000
  H   H33       1.0  0.31913  0.25033  0.47907  1.0000
  H   H34       1.0  0.31912  0.75029  0.47904  1.0000
  H   H35       1.0  0.81917  0.25032  0.47908  1.0000
  H   H36       1.0  0.81916  0.75028  0.47905  1.0000
  H   H37       1.0  0.42519  0.26324  0.54267  1.0000
  H   H38       1.0  0.42516  0.76317  0.54265  1.0000
  H   H39       1.0  0.92523  0.26326  0.54272  1.0000
  H   H40       1.0  0.92520  0.76319  0.54270  1.0000
  H   H41       1.0  0.03497  0.46274  0.52673  1.0000
  H   H42       1.0  0.03500  0.96271  0.52684  1.0000
  H   H43       1.0  0.53496  0.46272  0.52669  1.0000
  H   H44       1.0  0.53498  0.96270  0.52680  1.0000
  H   H45       1.0  0.42917  0.44977  0.46279  1.0000
  H   H46       1.0  0.42921  0.94978  0.46288  1.0000
  H   H47       1.0  0.92919  0.44977  0.46279  1.0000
  H   H48       1.0  0.92923  0.94977  0.46288  1.0000
  H   H49       1.0  0.04604  0.34206  0.62350  1.0000
  H   H50       1.0  0.04600  0.84197  0.62352  1.0000
  H   H51       1.0  0.54601  0.34203  0.62345  1.0000
  H   H52       1.0  0.54597  0.84195  0.62348  1.0000
  H   H53       1.0  0.09117  0.42585  0.62270  1.0000
  H   H54       1.0  0.09116  0.92578  0.62280  1.0000
  H   H55       1.0  0.59115  0.42582  0.62265  1.0000
  H   H56       1.0  0.59113  0.92575  0.62275  1.0000
  H   H57       1.0  0.15767  0.43671  0.47991  1.0000
  H   H58       1.0  0.15768  0.93669  0.48004  1.0000
  H   H59       1.0  0.65767  0.43668  0.47989  1.0000
  H   H60       1.0  0.65768  0.93666  0.48003  1.0000
  H   H61       1.0  0.07783  0.22312  0.27041  1.0000
  H   H62       1.0  0.07786  0.72312  0.27040  1.0000
  H   H63       1.0  0.57783  0.22308  0.27000  1.0000
  H   H64       1.0  0.57786  0.72309  0.27042  1.0000
  H   H65       1.0  0.00961  0.23018  0.43322  1.0000
  H   H66       1.0  0.00960  0.73013  0.43321  1.0000
  H   H67       1.0  0.50957  0.23015  0.43316  1.0000
  H   H68       1.0  0.50957  0.73010  0.43310  1.0000
  H   H69       1.0  0.31214  0.08685  0.00000  1.0000
  H   H70       1.0  0.31222  0.58691  0.00000  1.0000
  H   H71       1.0  0.81219  0.08682  0.00000  1.0000
  H   H72       1.0  0.81227  0.58688  0.00000  1.0000
  H   H73       1.0  0.34067  0.17201  0.13306  1.0000
  H   H74       1.0  0.34076  0.67208  0.13309  1.0000
  H   H75       1.0  0.84074  0.17198  0.13297  1.0000
  H   H76       1.0  0.84082  0.67205  0.13300  1.0000
  H   H77       1.0  0.45216  0.22062  0.66867  1.0000
  H   H78       1.0  0.45218  0.72053  0.66866  1.0000
  H   H79       1.0  0.95216  0.22062  0.66869  1.0000
  H   H80       1.0  0.95218  0.72051  0.66869  1.0000
  H   H81       1.0  0.02399  0.10104  0.45023  1.0000
  H   H82       1.0  0.02400  0.60101  0.45000  1.0000
  H   H83       1.0  0.52398  0.10102  0.45020  1.0000
  H   H84       1.0  0.52398  0.60099  0.45004  1.0000
  H   H85       1.0  0.40535  0.00492  0.35596  1.0000
  H   H86       1.0  0.40535  0.50489  0.35581  1.0000
  H   H87       1.0  0.90538  0.00492  0.35599  1.0000
  H   H88       1.0  0.90538  0.50489  0.35582  1.0000
  H   H89       1.0  0.08571  0.28493  0.04053  1.0000
  H   H90       1.0  0.08573  0.78491  0.04063  1.0000
  H   H91       1.0  0.58572  0.28489  0.04054  1.0000
  H   H92       1.0  0.58575  0.78487  0.04064  1.0000
  H   H93       1.0  0.21387  0.50062  0.24153  1.0000
  H   H94       1.0  0.21386  0.00000  0.24157  1.0000
  H   H95       1.0  0.71392  0.50058  0.24150  1.0000
  H   H96       1.0  0.71391  0.00000  0.24154  1.0000
  H   H97       1.0  0.13762  0.48869  0.07510  1.0000
  H   H98       1.0  0.13761  0.98864  0.07507  1.0000
  H   H99       1.0  0.63766  0.48865  0.07507  1.0000
  H   H100      1.0  0.63766  0.98860  0.07505  1.0000
  H   H101      1.0  0.06578  0.37484  0.88820  1.0000
  H   H102      1.0  0.06579  0.87476  0.88827  1.0000
  H   H103      1.0  0.56580  0.37479  0.88828  1.0000
  H   H104      1.0  0.56582  0.87471  0.88827  1.0000
  H   H105      1.0  0.03099  0.29184  0.89100  1.0000
  H   H106      1.0  0.03101  0.79178  0.89112  1.0000
  H   H107      1.0  0.53100  0.29180  0.89109  1.0000
  H   H108      1.0  0.53102  0.79173  0.89114  1.0000
  H   H109      1.0  0.43536  0.25117  0.97907  1.0000
  H   H110      1.0  0.43532  0.75106  0.97890  1.0000
  H   H111      1.0  0.93536  0.25119  0.97904  1.0000
  H   H112      1.0  0.93531  0.75108  0.97889  1.0000
  H   H113      1.0  0.33965  0.26106  0.03840  1.0000
  H   H114      1.0  0.33960  0.76094  0.03824  1.0000
  H   H115      1.0  0.83964  0.26105  0.03841  1.0000
  H   H116      1.0  0.83959  0.76094  0.03823  1.0000
  H   H117      1.0  0.42406  0.46161  0.02644  1.0000
  H   H118      1.0  0.42411  0.96157  0.02647  1.0000
  H   H119      1.0  0.92402  0.46162  0.02640  1.0000
  H   H120      1.0  0.92406  0.96158  0.02650  1.0000
  H   H121      1.0  0.01942  0.45172  0.96682  1.0000
  H   H122      1.0  0.01947  0.95168  0.96687  1.0000
  H   H123      1.0  0.51946  0.45169  0.96600  1.0000
  H   H124      1.0  0.51951  0.95165  0.96685  1.0000
  H   H125      1.0  0.29396  0.33840  0.11867  1.0000
  H   H126      1.0  0.29396  0.83835  0.11860  1.0000
  H   H127      1.0  0.79393  0.33837  0.11866  1.0000
  H   H128      1.0  0.79393  0.83832  0.11860  1.0000
  H   H129      1.0  0.33002  0.42209  0.11802  1.0000
  H   H130      1.0  0.33003  0.92204  0.11794  1.0000
  H   H131      1.0  0.82997  0.42206  0.11802  1.0000
  H   H132      1.0  0.82999  0.92202  0.11795  1.0000
  H   H133      1.0  0.27553  0.43237  0.97377  1.0000
  H   H134      1.0  0.27554  0.93232  0.97372  1.0000
  H   H135      1.0  0.77552  0.43234  0.97372  1.0000
  H   H136      1.0  0.77553  0.93230  0.97367  1.0000
  H   H137      1.0  0.14694  0.21859  0.76469  1.0000
  H   H138      1.0  0.14691  0.71855  0.76466  1.0000
  H   H139      1.0  0.64693  0.21855  0.76466  1.0000
  H   H140      1.0  0.64690  0.71852  0.76464  1.0000
  H   H141      1.0  0.22175  0.22618  0.92830  1.0000
  H   H142      1.0  0.22172  0.72613  0.92824  1.0000
  H   H143      1.0  0.72171  0.22615  0.92830  1.0000
  H   H144      1.0  0.72168  0.72610  0.92826  1.0000
  H   H145      1.0  0.27712  0.09050  0.53722  1.0000
  H   H146      1.0  0.27714  0.59043  0.53723  1.0000
  H   H147      1.0  0.77712  0.09047  0.53723  1.0000
  H   H148      1.0  0.77714  0.59039  0.53724  1.0000
  H   H149      1.0  0.33349  0.17485  0.63990  1.0000
  H   H150      1.0  0.33352  0.67475  0.63995  1.0000
  H   H151      1.0  0.83349  0.17482  0.63990  1.0000
  H   H152      1.0  0.83351  0.67472  0.63997  1.0000
  C   C1        1.0  0.20526  0.49639  0.89786  1.0000
  C   C2        1.0  0.20519  0.99632  0.89780  1.0000
  C   C3        1.0  0.70529  0.49636  0.89782  1.0000
  C   C4        1.0  0.70522  0.99629  0.89776  1.0000
  C   C5        1.0  0.19544  0.05642  0.95712  1.0000
  C   C6        1.0  0.19551  0.55647  0.95720  1.0000
  C   C7        1.0  0.69548  0.05640  0.95710  1.0000
  C   C8        1.0  0.69555  0.55645  0.95719  1.0000
  C   C9        1.0  0.24487  0.11817  0.04548  1.0000
  C   C10       1.0  0.24494  0.61823  0.04553  1.0000
  C   C11       1.0  0.74491  0.11814  0.04545  1.0000
  C   C12       1.0  0.74499  0.61820  0.04551  1.0000
  C   C13       1.0  0.23191  0.17278  0.09771  1.0000
  C   C14       1.0  0.23197  0.67284  0.09779  1.0000
  C   C15       1.0  0.73196  0.17276  0.09771  1.0000
  C   C16       1.0  0.73203  0.67281  0.09779  1.0000
  C   C17       1.0  0.17256  0.16731  0.06555  1.0000
  C   C18       1.0  0.17263  0.66737  0.06561  1.0000
  C   C19       1.0  0.67261  0.16728  0.06560  1.0000
  C   C20       1.0  0.67268  0.66734  0.06566  1.0000
  C   C21       1.0  0.12378  0.10626  0.97878  1.0000
  C   C22       1.0  0.12384  0.60629  0.97887  1.0000
  C   C23       1.0  0.62382  0.10623  0.97882  1.0000
  C   C24       1.0  0.62388  0.60627  0.97892  1.0000
  C   C25       1.0  0.13596  0.05237  0.92622  1.0000
  C   C26       1.0  0.13602  0.55241  0.92630  1.0000
  C   C27       1.0  0.63599  0.05234  0.92625  1.0000
  C   C28       1.0  0.63606  0.55239  0.92633  1.0000
  C   C29       1.0  0.16033  0.22671  0.12155  1.0000
  C   C30       1.0  0.16037  0.72674  0.12165  1.0000
  C   C31       1.0  0.66038  0.22668  0.12159  1.0000
  C   C32       1.0  0.66042  0.72671  0.12170  1.0000
  C   C33       1.0  0.23018  0.33767  0.56656  1.0000
  C   C34       1.0  0.23019  0.83766  0.56655  1.0000
  C   C35       1.0  0.73019  0.33764  0.56651  1.0000
  C   C36       1.0  0.73020  0.83763  0.56650  1.0000
  C   C37       1.0  0.27367  0.45011  0.66855  1.0000
  C   C38       1.0  0.27366  0.95009  0.66850  1.0000
  C   C39       1.0  0.77367  0.45008  0.66850  1.0000
  C   C40       1.0  0.77368  0.95006  0.66850  1.0000
  C   C41       1.0  0.30669  0.44512  0.58813  1.0000
  C   C42       1.0  0.30670  0.94511  0.58814  1.0000
  C   C43       1.0  0.80670  0.44509  0.58809  1.0000
  C   C44       1.0  0.80672  0.94508  0.58810  1.0000
  C   C45       1.0  0.30217  0.34335  0.43248  1.0000
  C   C46       1.0  0.30220  0.84334  0.43249  1.0000
  C   C47       1.0  0.80220  0.34332  0.43245  1.0000
  C   C48       1.0  0.80223  0.84332  0.43247  1.0000
  C   C49       1.0  0.36671  0.34919  0.46655  1.0000
  C   C50       1.0  0.36672  0.84918  0.46658  1.0000
  C   C51       1.0  0.86673  0.34918  0.46655  1.0000
  C   C52       1.0  0.86675  0.84917  0.46658  1.0000
  C   C53       1.0  0.36644  0.29708  0.48942  1.0000
  C   C54       1.0  0.36644  0.79704  0.48942  1.0000
  C   C55       1.0  0.86648  0.29708  0.48944  1.0000
  C   C56       1.0  0.86647  0.79704  0.48944  1.0000
  C   C57       1.0  0.42613  0.30441  0.52565  1.0000
  C   C58       1.0  0.42612  0.80436  0.52565  1.0000
  C   C59       1.0  0.92617  0.30443  0.52569  1.0000
  C   C60       1.0  0.92616  0.80438  0.52500  1.0000
  C   C61       1.0  0.48744  0.36405  0.53970  1.0000
  C   C62       1.0  0.48744  0.86400  0.53983  1.0000
  C   C63       1.0  0.98747  0.36407  0.53980  1.0000
  C   C64       1.0  0.98747  0.86402  0.53988  1.0000
  C   C65       1.0  0.48768  0.41600  0.51649  1.0000
  C   C66       1.0  0.48769  0.91597  0.51657  1.0000
  C   C67       1.0  0.98771  0.41601  0.51653  1.0000
  C   C68       1.0  0.98772  0.91598  0.51660  1.0000
  C   C69       1.0  0.42803  0.40864  0.48016  1.0000
  C   C70       1.0  0.42805  0.90863  0.48023  1.0000
  C   C71       1.0  0.92805  0.40864  0.48017  1.0000
  C   C72       1.0  0.92808  0.90863  0.48024  1.0000
  C   C73       1.0  0.05213  0.37062  0.57532  1.0000
  C   C74       1.0  0.05212  0.87056  0.57538  1.0000
  C   C75       1.0  0.55211  0.37059  0.57527  1.0000
  C   C76       1.0  0.55209  0.87053  0.57533  1.0000
  C   C77       1.0  0.12669  0.37973  0.44510  1.0000
  C   C78       1.0  0.12670  0.87971  0.44521  1.0000
  C   C79       1.0  0.62668  0.37970  0.44509  1.0000
  C   C80       1.0  0.62669  0.87968  0.44500  1.0000
  C   C81       1.0  0.08432  0.26815  0.33920  1.0000
  C   C82       1.0  0.08434  0.76814  0.33924  1.0000
  C   C83       1.0  0.58432  0.26812  0.33918  1.0000
  C   C84       1.0  0.58434  0.76811  0.33920  1.0000
  C   C85       1.0  0.04992  0.27113  0.41804  1.0000
  C   C86       1.0  0.04992  0.77110  0.41806  1.0000
  C   C87       1.0  0.54990  0.27110  0.41799  1.0000
  C   C88       1.0  0.54990  0.77107  0.41802  1.0000
  C   C89       1.0  0.29275  0.49878  0.40040  1.0000
  C   C90       1.0  0.29275  0.99882  0.40052  1.0000
  C   C91       1.0  0.79278  0.49876  0.40046  1.0000
  C   C92       1.0  0.79277  0.99879  0.40055  1.0000
  C   C93       1.0  0.36191  0.05774  0.45882  1.0000
  C   C94       1.0  0.36192  0.55768  0.45874  1.0000
  C   C95       1.0  0.86193  0.05773  0.45880  1.0000
  C   C96       1.0  0.86194  0.55767  0.45870  1.0000
  C   C97       1.0  0.37447  0.11958  0.54867  1.0000
  C   C98       1.0  0.37448  0.61951  0.54864  1.0000
  C   C99       1.0  0.87448  0.11957  0.54870  1.0000
  C   C100      1.0  0.87449  0.61948  0.54867  1.0000
  C   C101      1.0  0.44139  0.17300  0.59973  1.0000
  C   C102      1.0  0.44140  0.67292  0.59970  1.0000
  C   C103      1.0  0.94139  0.17299  0.59975  1.0000
  C   C104      1.0  0.94140  0.67291  0.59972  1.0000
  C   C105      1.0  0.49443  0.16639  0.56481  1.0000
  C   C106      1.0  0.49444  0.66632  0.56470  1.0000
  C   C107      1.0  0.99444  0.16638  0.56486  1.0000
  C   C108      1.0  0.99445  0.66631  0.56478  1.0000
  C   C109      1.0  0.48192  0.10524  0.47653  1.0000
  C   C110      1.0  0.48193  0.60519  0.47641  1.0000
  C   C111      1.0  0.98194  0.10525  0.47655  1.0000
  C   C112      1.0  0.98195  0.60521  0.47643  1.0000
  C   C113      1.0  0.41648  0.05250  0.42516  1.0000
  C   C114      1.0  0.41649  0.55246  0.42504  1.0000
  C   C115      1.0  0.91651  0.05251  0.42519  1.0000
  C   C116      1.0  0.91652  0.55246  0.42506  1.0000
  C   C117      1.0  0.06531  0.22465  0.61967  1.0000
  C   C118      1.0  0.06532  0.72458  0.61961  1.0000
  C   C119      1.0  0.56531  0.22463  0.61966  1.0000
  C   C120      1.0  0.56532  0.72457  0.61959  1.0000
  C   C121      1.0  0.10996  0.34182  0.07240  1.0000
  C   C122      1.0  0.10998  0.84180  0.07240  1.0000
  C   C123      1.0  0.60998  0.34177  0.07241  1.0000
  C   C124      1.0  0.61000  0.84175  0.07248  1.0000
  C   C125      1.0  0.17616  0.45435  0.17417  1.0000
  C   C126      1.0  0.17616  0.95434  0.17420  1.0000
  C   C127      1.0  0.67620  0.45431  0.17410  1.0000
  C   C128      1.0  0.67620  0.95430  0.17419  1.0000
  C   C129      1.0  0.13842  0.44906  0.09336  1.0000
  C   C130      1.0  0.13841  0.94903  0.09337  1.0000
  C   C131      1.0  0.63845  0.44902  0.09334  1.0000
  C   C132      1.0  0.63845  0.94898  0.09335  1.0000
  C   C133      1.0  0.04410  0.34660  0.93690  1.0000
  C   C134      1.0  0.04412  0.84653  0.93694  1.0000
  C   C135      1.0  0.54412  0.34656  0.93694  1.0000
  C   C136      1.0  0.54414  0.84649  0.93695  1.0000
  C   C137      1.0  0.48418  0.35079  0.96888  1.0000
  C   C138      1.0  0.48419  0.85071  0.96884  1.0000
  C   C139      1.0  0.98416  0.35081  0.96887  1.0000
  C   C140      1.0  0.98417  0.85074  0.96884  1.0000
  C   C141      1.0  0.43308  0.29752  0.98940  1.0000
  C   C142      1.0  0.43306  0.79742  0.98932  1.0000
  C   C143      1.0  0.93307  0.29753  0.98942  1.0000
  C   C144      1.0  0.93305  0.79744  0.98931  1.0000
  C   C145      1.0  0.37925  0.30311  0.02316  1.0000
  C   C146      1.0  0.37922  0.80302  0.02302  1.0000
  C   C147      1.0  0.87923  0.30311  0.02314  1.0000
  C   C148      1.0  0.87920  0.80302  0.02301  1.0000
  C   C149      1.0  0.37538  0.36221  0.03730  1.0000
  C   C150      1.0  0.37538  0.86214  0.03722  1.0000
  C   C151      1.0  0.87536  0.36221  0.03730  1.0000
  C   C152      1.0  0.87535  0.86214  0.03723  1.0000
  C   C153      1.0  0.42634  0.41530  0.01625  1.0000
  C   C154      1.0  0.42636  0.91525  0.01620  1.0000
  C   C155      1.0  0.92631  0.41531  0.01627  1.0000
  C   C156      1.0  0.92633  0.91526  0.01625  1.0000
  C   C157      1.0  0.48011  0.40969  0.98245  1.0000
  C   C158      1.0  0.48014  0.90964  0.98246  1.0000
  C   C159      1.0  0.98009  0.40971  0.98246  1.0000
  C   C160      1.0  0.98011  0.90966  0.98247  1.0000
  C   C161      1.0  0.31600  0.36716  0.07075  1.0000
  C   C162      1.0  0.31600  0.86710  0.07060  1.0000
  C   C163      1.0  0.81597  0.36714  0.07075  1.0000
  C   C164      1.0  0.81597  0.86709  0.07068  1.0000
  C   C165      1.0  0.25086  0.37540  0.93928  1.0000
  C   C166      1.0  0.25086  0.87535  0.93922  1.0000
  C   C167      1.0  0.75085  0.37536  0.93924  1.0000
  C   C168      1.0  0.75085  0.87533  0.93919  1.0000
  C   C169      1.0  0.18445  0.26373  0.83340  1.0000
  C   C170      1.0  0.18443  0.76369  0.83339  1.0000
  C   C171      1.0  0.68444  0.26369  0.83340  1.0000
  C   C172      1.0  0.68442  0.76366  0.83337  1.0000
  C   C173      1.0  0.22159  0.26697  0.91265  1.0000
  C   C174      1.0  0.22157  0.76692  0.91260  1.0000
  C   C175      1.0  0.72156  0.26694  0.91265  1.0000
  C   C176      1.0  0.72154  0.76690  0.91260  1.0000
  N   N1        1.0  0.22601  0.38276  0.65430  1.0000
  N   N2        1.0  0.22601  0.88274  0.65434  1.0000
  N   N3        1.0  0.72601  0.38273  0.65430  1.0000
  N   N4        1.0  0.72602  0.88271  0.65429  1.0000
  N   N5        1.0  0.27856  0.37378  0.52411  1.0000
  N   N6        1.0  0.27857  0.87377  0.52412  1.0000
  N   N7        1.0  0.77857  0.37375  0.52407  1.0000
  N   N8        1.0  0.77859  0.87374  0.52408  1.0000
  N   N9        1.0  0.13220  0.33626  0.35688  1.0000
  N   N10       1.0  0.13222  0.83626  0.35697  1.0000
  N   N11       1.0  0.63220  0.33623  0.35680  1.0000
  N   N12       1.0  0.63223  0.83623  0.35697  1.0000
  N   N13       1.0  0.07735  0.34199  0.48450  1.0000
  N   N14       1.0  0.07735  0.84195  0.48463  1.0000
  N   N15       1.0  0.57733  0.34196  0.48452  1.0000
  N   N16       1.0  0.57733  0.84192  0.48459  1.0000
  N   N17       1.0  0.30265  0.12391  0.08148  1.0000
  N   N18       1.0  0.30273  0.62398  0.08152  1.0000
  N   N19       1.0  0.80271  0.12389  0.08140  1.0000
  N   N20       1.0  0.80279  0.62395  0.08145  1.0000
  N   N21       1.0  0.15802  0.38712  0.16031  1.0000
  N   N22       1.0  0.15803  0.88711  0.16039  1.0000
  N   N23       1.0  0.65805  0.38707  0.16030  1.0000
  N   N24       1.0  0.65806  0.88707  0.16039  1.0000
  N   N25       1.0  0.09697  0.37764  0.02949  1.0000
  N   N26       1.0  0.09698  0.87760  0.02952  1.0000
  N   N27       1.0  0.59699  0.37760  0.02949  1.0000
  N   N28       1.0  0.59700  0.87755  0.02952  1.0000
  N   N29       1.0  0.20310  0.33174  0.85086  1.0000
  N   N30       1.0  0.20309  0.83170  0.85080  1.0000
  N   N31       1.0  0.70309  0.33171  0.85082  1.0000
  N   N32       1.0  0.70308  0.83167  0.85070  1.0000
  N   N33       1.0  0.26322  0.33791  0.97913  1.0000
  N   N34       1.0  0.26322  0.83786  0.97907  1.0000
  N   N35       1.0  0.76319  0.33788  0.97913  1.0000
  N   N36       1.0  0.76319  0.83783  0.97907  1.0000
  N   N37       1.0  0.32328  0.12649  0.58725  1.0000
  N   N38       1.0  0.32329  0.62639  0.58728  1.0000
  N   N39       1.0  0.82328  0.12646  0.58727  1.0000
  N   N40       1.0  0.82330  0.62636  0.58730  1.0000
  O   O1        1.0  0.26091  0.00170  0.91509  1.0000
  O   O2        1.0  0.26097  0.50175  0.91516  1.0000
  O   O3        1.0  0.76094  0.00167  0.91499  1.0000
  O   O4        1.0  0.76101  0.50172  0.91507  1.0000
  O   O5        1.0  0.15358  0.43922  0.82863  1.0000
  O   O6        1.0  0.15352  0.93915  0.82856  1.0000
  O   O7        1.0  0.65360  0.43919  0.82861  1.0000
  O   O8        1.0  0.65353  0.93912  0.82854  1.0000
  O   O9        1.0  0.21138  0.28495  0.19107  1.0000
  O   O10       1.0  0.21142  0.78499  0.19110  1.0000
  O   O11       1.0  0.71142  0.28492  0.19112  1.0000
  O   O12       1.0  0.71146  0.78497  0.19121  1.0000
  O   O13       1.0  0.10429  0.21836  0.09993  1.0000
  O   O14       1.0  0.10433  0.71837  0.10001  1.0000
  O   O15       1.0  0.60434  0.21832  0.09997  1.0000
  O   O16       1.0  0.60438  0.71834  0.10006  1.0000
  O   O17       1.0  0.24306  0.00536  0.42001  1.0000
  O   O18       1.0  0.24308  0.50533  0.41994  1.0000
  O   O19       1.0  0.74308  0.00533  0.42000  1.0000
  O   O20       1.0  0.74309  0.50530  0.41995  1.0000
  O   O21       1.0  0.28712  0.44116  0.32991  1.0000
  O   O22       1.0  0.28714  0.94120  0.33002  1.0000
  O   O23       1.0  0.78715  0.44114  0.32993  1.0000
  O   O24       1.0  0.78716  0.94118  0.33005  1.0000
  O   O25       1.0  0.07258  0.28334  0.69021  1.0000
  O   O26       1.0  0.07258  0.78326  0.69017  1.0000
  O   O27       1.0  0.57259  0.28333  0.69017  1.0000
  O   O28       1.0  0.57258  0.78326  0.69012  1.0000
  O   O29       1.0  0.11243  0.21524  0.59609  1.0000
  O   O30       1.0  0.11245  0.71520  0.59602  1.0000
  O   O31       1.0  0.61243  0.21522  0.59607  1.0000
  O   O32       1.0  0.61245  0.71518  0.59601  1.0000
