data_image0
_chemical_formula_structural       Zn6H96C138N6O24
_chemical_formula_sum              "Zn6 H96 C138 N6 O24"
_cell_length_a       14.056
_cell_length_b       17.915
_cell_length_c       17.917
_cell_angle_alpha    100.312
_cell_angle_beta     91.959
_cell_angle_gamma    91.889

_space_group_name_H-M_alt    "P 1"
_space_group_IT_number       1

loop_
  _space_group_symop_operation_xyz
  'x, y, z'

loop_
  _atom_site_type_symbol
  _atom_site_label
  _atom_site_symmetry_multiplicity
  _atom_site_fract_x
  _atom_site_fract_y
  _atom_site_fract_z
  _atom_site_occupancy
  Zn  Zn1       1.0  0.10066  0.09029  0.91865  1.0000
  Zn  Zn2       1.0  0.89933  0.08141  0.90968  1.0000
  Zn  Zn3       1.0  0.41677  0.29387  0.45975  1.0000
  Zn  Zn4       1.0  0.21326  0.28365  0.45036  1.0000
  Zn  Zn5       1.0  0.58320  0.54029  0.70619  1.0000
  Zn  Zn6       1.0  0.78672  0.54963  0.71670  1.0000
  H   H1        1.0  0.84954  0.31929  0.88841  1.0000
  H   H2        1.0  0.14831  0.33205  0.94923  1.0000
  H   H3        1.0  0.24031  0.44633  0.96274  1.0000
  H   H4        1.0  0.20590  0.50377  0.89569  1.0000
  H   H5        1.0  0.17829  0.53148  0.99181  1.0000
  H   H6        1.0  0.85648  0.45706  0.87979  1.0000
  H   H7        1.0  0.85267  0.69317  0.88287  1.0000
  H   H8        1.0  0.24272  0.75117  0.93296  1.0000
  H   H9        1.0  0.18529  0.70103  0.99693  1.0000
  H   H10       1.0  0.19220  0.65721  0.90146  1.0000
  H   H11       1.0  0.14688  0.85907  0.92610  1.0000
  H   H12       1.0  0.84460  0.83245  0.88340  1.0000
  H   H13       1.0  0.25042  0.10977  0.80817  1.0000
  H   H14       1.0  0.25841  0.06662  0.02724  1.0000
  H   H15       1.0  0.43672  0.06074  0.03016  1.0000
  H   H16       1.0  0.42849  0.11101  0.80302  1.0000
  H   H17       1.0  0.15047  0.11150  0.68081  1.0000
  H   H18       1.0  0.85169  0.05088  0.66776  1.0000
  H   H19       1.0  0.75975  0.03740  0.55340  1.0000
  H   H20       1.0  0.79415  0.10435  0.49594  1.0000
  H   H21       1.0  0.82178  0.00000  0.46838  1.0000
  H   H22       1.0  0.14358  0.12004  0.54304  1.0000
  H   H23       1.0  0.14744  0.11722  0.30690  1.0000
  H   H24       1.0  0.75746  0.06692  0.24863  1.0000
  H   H25       1.0  0.81500  0.00298  0.29884  1.0000
  H   H26       1.0  0.80795  0.09847  0.34260  1.0000
  H   H27       1.0  0.85326  0.07377  0.14082  1.0000
  H   H28       1.0  0.15548  0.11662  0.16770  1.0000
  H   H29       1.0  0.74928  0.19178  0.88985  1.0000
  H   H30       1.0  0.74183  0.97293  0.93368  1.0000
  H   H31       1.0  0.56355  0.97000  0.93963  1.0000
  H   H32       1.0  0.57121  0.19689  0.88866  1.0000
  H   H33       1.0  0.46750  0.29207  0.22677  1.0000
  H   H34       1.0  0.16351  0.26128  0.20271  1.0000
  H   H35       1.0  0.17116  0.26017  0.06320  1.0000
  H   H36       1.0  0.50455  0.34148  0.04474  1.0000
  H   H37       1.0  0.56206  0.30843  0.12212  1.0000
  H   H38       1.0  0.52132  0.24366  0.03916  1.0000
  H   H39       1.0  0.53263  0.31488  0.87026  1.0000
  H   H40       1.0  0.52731  0.39925  0.83173  1.0000
  H   H41       1.0  0.46678  0.39059  0.91606  1.0000
  H   H42       1.0  0.17878  0.24298  0.82446  1.0000
  H   H43       1.0  0.17283  0.24804  0.68606  1.0000
  H   H44       1.0  0.45334  0.35520  0.71010  1.0000
  H   H45       1.0  0.47480  0.05801  0.46850  1.0000
  H   H46       1.0  0.17272  0.03871  0.42114  1.0000
  H   H47       1.0  0.17338  0.90153  0.42907  1.0000
  H   H48       1.0  0.56329  0.95279  0.49122  1.0000
  H   H49       1.0  0.49961  0.88302  0.53140  1.0000
  H   H50       1.0  0.52084  0.86562  0.43382  1.0000
  H   H51       1.0  0.17504  0.65717  0.41990  1.0000
  H   H52       1.0  0.52613  0.70928  0.48505  1.0000
  H   H53       1.0  0.46566  0.74866  0.56654  1.0000
  H   H54       1.0  0.53093  0.66469  0.56610  1.0000
  H   H55       1.0  0.45536  0.54409  0.52550  1.0000
  H   H56       1.0  0.17243  0.51810  0.42287  1.0000
  H   H57       1.0  0.55703  0.21689  0.35756  1.0000
  H   H58       1.0  0.58349  0.37793  0.55518  1.0000
  H   H59       1.0  0.76014  0.37764  0.55581  1.0000
  H   H60       1.0  0.73395  0.21025  0.34890  1.0000
  H   H61       1.0  0.88784  0.29273  0.57306  1.0000
  H   H62       1.0  0.87727  0.28365  0.32999  1.0000
  H   H63       1.0  0.05479  0.27834  0.33451  1.0000
  H   H64       1.0  0.06546  0.28731  0.56687  1.0000
  H   H65       1.0  0.53238  0.77333  0.70814  1.0000
  H   H66       1.0  0.83637  0.79723  0.73904  1.0000
  H   H67       1.0  0.82864  0.93675  0.74011  1.0000
  H   H68       1.0  0.49525  0.95532  0.65855  1.0000
  H   H69       1.0  0.43776  0.87801  0.69159  1.0000
  H   H70       1.0  0.47844  0.96100  0.75635  1.0000
  H   H71       1.0  0.46719  0.13018  0.68527  1.0000
  H   H72       1.0  0.47239  0.16851  0.60079  1.0000
  H   H73       1.0  0.53280  0.08409  0.60957  1.0000
  H   H74       1.0  0.82123  0.17534  0.75683  1.0000
  H   H75       1.0  0.82722  0.31377  0.75180  1.0000
  H   H76       1.0  0.54652  0.29011  0.64479  1.0000
  H   H77       1.0  0.52521  0.53154  0.94200  1.0000
  H   H78       1.0  0.82731  0.57862  0.96160  1.0000
  H   H79       1.0  0.82663  0.57077  0.09877  1.0000
  H   H80       1.0  0.43672  0.50897  0.04723  1.0000
  H   H81       1.0  0.50036  0.46877  0.11712  1.0000
  H   H82       1.0  0.47917  0.56643  0.13437  1.0000
  H   H83       1.0  0.82474  0.58050  0.34322  1.0000
  H   H84       1.0  0.47372  0.51519  0.29077  1.0000
  H   H85       1.0  0.53434  0.43371  0.25145  1.0000
  H   H86       1.0  0.46912  0.43414  0.33537  1.0000
  H   H87       1.0  0.54461  0.47470  0.45598  1.0000
  H   H88       1.0  0.82736  0.57750  0.48220  1.0000
  H   H89       1.0  0.44288  0.64252  0.78315  1.0000
  H   H90       1.0  0.41655  0.44483  0.62220  1.0000
  H   H91       1.0  0.23990  0.44417  0.62240  1.0000
  H   H92       1.0  0.26597  0.65111  0.78978  1.0000
  H   H93       1.0  0.11236  0.42690  0.70727  1.0000
  H   H94       1.0  0.12248  0.67000  0.71650  1.0000
  H   H95       1.0  0.94499  0.66545  0.72192  1.0000
  H   H96       1.0  0.93476  0.43306  0.71282  1.0000
  C   C1        1.0  0.99663  0.23397  0.92188  1.0000
  C   C2        1.0  0.99871  0.31722  0.91946  1.0000
  C   C3        1.0  0.91621  0.35265  0.90010  1.0000
  C   C4        1.0  0.08467  0.36019  0.93451  1.0000
  C   C5        1.0  0.09068  0.43727  0.93094  1.0000
  C   C6        1.0  0.18389  0.48183  0.94636  1.0000
  C   C7        1.0  0.91989  0.42925  0.89573  1.0000
  C   C8        1.0  0.00643  0.47268  0.91174  1.0000
  C   C9        1.0  0.00813  0.55124  0.90958  1.0000
  C   C10       1.0  0.00739  0.61939  0.90922  1.0000
  C   C11       1.0  0.00447  0.69801  0.90795  1.0000
  C   C12       1.0  0.91660  0.73016  0.89380  1.0000
  C   C13       1.0  0.08918  0.74497  0.92054  1.0000
  C   C14       1.0  0.18250  0.71217  0.93840  1.0000
  C   C15       1.0  0.08296  0.82189  0.91740  1.0000
  C   C16       1.0  0.91229  0.80739  0.89339  1.0000
  C   C17       1.0  0.99555  0.85404  0.90470  1.0000
  C   C18       1.0  0.99144  0.93762  0.90444  1.0000
  C   C19       1.0  0.29509  0.10000  0.85605  1.0000
  C   C20       1.0  0.29955  0.07451  0.97859  1.0000
  C   C21       1.0  0.39827  0.07149  0.97958  1.0000
  C   C22       1.0  0.39375  0.10012  0.85364  1.0000
  C   C23       1.0  0.44739  0.08497  0.91617  1.0000
  C   C24       1.0  0.00334  0.07819  0.76600  1.0000
  C   C25       1.0  0.00128  0.08058  0.68275  1.0000
  C   C26       1.0  0.08380  0.09985  0.64740  1.0000
  C   C27       1.0  0.91534  0.06556  0.63969  1.0000
  C   C28       1.0  0.90938  0.06909  0.56260  1.0000
  C   C29       1.0  0.81617  0.05369  0.51797  1.0000
  C   C30       1.0  0.08016  0.10417  0.57078  1.0000
  C   C31       1.0  0.99363  0.08822  0.52728  1.0000
  C   C32       1.0  0.99196  0.09038  0.44873  1.0000
  C   C33       1.0  0.99276  0.09077  0.38059  1.0000
  C   C34       1.0  0.99568  0.09204  0.30199  1.0000
  C   C35       1.0  0.08352  0.10621  0.26992  1.0000
  C   C36       1.0  0.91098  0.07940  0.25497  1.0000
  C   C37       1.0  0.81769  0.06151  0.28769  1.0000
  C   C38       1.0  0.91718  0.08242  0.17805  1.0000
  C   C39       1.0  0.08780  0.10663  0.19269  1.0000
  C   C40       1.0  0.00455  0.09525  0.14597  1.0000
  C   C41       1.0  0.00862  0.09551  0.06240  1.0000
  C   C42       1.0  0.70474  0.14395  0.89979  1.0000
  C   C43       1.0  0.70059  0.02154  0.92565  1.0000
  C   C44       1.0  0.60188  0.02055  0.92871  1.0000
  C   C45       1.0  0.60607  0.14634  0.89970  1.0000
  C   C46       1.0  0.55260  0.08388  0.91505  1.0000
  C   C47       1.0  0.31145  0.27890  0.30684  1.0000
  C   C48       1.0  0.31528  0.27714  0.22304  1.0000
  C   C49       1.0  0.40323  0.28547  0.19006  1.0000
  C   C50       1.0  0.23150  0.26826  0.17700  1.0000
  C   C51       1.0  0.23562  0.26831  0.09976  1.0000
  C   C52       1.0  0.40972  0.28680  0.11287  1.0000
  C   C53       1.0  0.50441  0.29580  0.07830  1.0000
  C   C54       1.0  0.32402  0.27892  0.06710  1.0000
  C   C55       1.0  0.32595  0.28327  0.98919  1.0000
  C   C56       1.0  0.32421  0.28932  0.92231  1.0000
  C   C57       1.0  0.32051  0.29520  0.84466  1.0000
  C   C58       1.0  0.39874  0.32847  0.81247  1.0000
  C   C59       1.0  0.48573  0.36039  0.85999  1.0000
  C   C60       1.0  0.23859  0.26749  0.79869  1.0000
  C   C61       1.0  0.23528  0.27033  0.72172  1.0000
  C   C62       1.0  0.39354  0.32985  0.73493  1.0000
  C   C63       1.0  0.31385  0.29999  0.68875  1.0000
  C   C64       1.0  0.31382  0.29822  0.60486  1.0000
  C   C65       1.0  0.32312  0.14071  0.44493  1.0000
  C   C66       1.0  0.32398  0.05708  0.44529  1.0000
  C   C67       1.0  0.40925  0.02280  0.46015  1.0000
  C   C68       1.0  0.23894  0.01260  0.43333  1.0000
  C   C69       1.0  0.23943  0.93611  0.43777  1.0000
  C   C70       1.0  0.41179  0.94610  0.46528  1.0000
  C   C71       1.0  0.50381  0.91048  0.48141  1.0000
  C   C72       1.0  0.32477  0.90180  0.45453  1.0000
  C   C73       1.0  0.32272  0.82403  0.46053  1.0000
  C   C74       1.0  0.31943  0.75680  0.46559  1.0000
  C   C75       1.0  0.31742  0.67870  0.47030  1.0000
  C   C76       1.0  0.23620  0.63172  0.44304  1.0000
  C   C77       1.0  0.39745  0.64660  0.50150  1.0000
  C   C78       1.0  0.48464  0.69463  0.53183  1.0000
  C   C79       1.0  0.39411  0.56877  0.50182  1.0000
  C   C80       1.0  0.23459  0.55445  0.44448  1.0000
  C   C81       1.0  0.31464  0.52194  0.47266  1.0000
  C   C82       1.0  0.31641  0.43791  0.46975  1.0000
  C   C83       1.0  0.60536  0.25132  0.39992  1.0000
  C   C84       1.0  0.61948  0.34079  0.51103  1.0000
  C   C85       1.0  0.71835  0.34010  0.51118  1.0000
  C   C86       1.0  0.70357  0.24835  0.39550  1.0000
  C   C87       1.0  0.76243  0.29275  0.45270  1.0000
  C   C88       1.0  0.86731  0.28939  0.45171  1.0000
  C   C89       1.0  0.92191  0.29077  0.51904  1.0000
  C   C90       1.0  0.91573  0.28435  0.38395  1.0000
  C   C91       1.0  0.01444  0.28186  0.38578  1.0000
  C   C92       1.0  0.02029  0.28736  0.51625  1.0000
  C   C93       1.0  0.68849  0.69317  0.72129  1.0000
  C   C94       1.0  0.68460  0.77698  0.72310  1.0000
  C   C95       1.0  0.59663  0.81001  0.71476  1.0000
  C   C96       1.0  0.76836  0.82295  0.73203  1.0000
  C   C97       1.0  0.76420  0.90023  0.73195  1.0000
  C   C98       1.0  0.59010  0.88720  0.71330  1.0000
  C   C99       1.0  0.49539  0.92177  0.70426  1.0000
  C   C100      1.0  0.67578  0.93293  0.72126  1.0000
  C   C101      1.0  0.67385  0.01084  0.71679  1.0000
  C   C102      1.0  0.67565  0.07770  0.71064  1.0000
  C   C103      1.0  0.67938  0.15534  0.70470  1.0000
  C   C104      1.0  0.60110  0.18765  0.67150  1.0000
  C   C105      1.0  0.51400  0.14025  0.63968  1.0000
  C   C106      1.0  0.76139  0.20120  0.73236  1.0000
  C   C107      1.0  0.76473  0.27818  0.72953  1.0000
  C   C108      1.0  0.60635  0.26519  0.67010  1.0000
  C   C109      1.0  0.68613  0.31126  0.69992  1.0000
  C   C110      1.0  0.68617  0.39518  0.70183  1.0000
  C   C111      1.0  0.67688  0.55501  0.85950  1.0000
  C   C112      1.0  0.67604  0.55460  0.94311  1.0000
  C   C113      1.0  0.59077  0.53983  0.97734  1.0000
  C   C114      1.0  0.76109  0.56650  0.98766  1.0000
  C   C115      1.0  0.76059  0.56212  0.06414  1.0000
  C   C116      1.0  0.58822  0.53478  0.05403  1.0000
  C   C117      1.0  0.49619  0.51877  0.08958  1.0000
  C   C118      1.0  0.67524  0.54549  0.09839  1.0000
  C   C119      1.0  0.67726  0.53960  0.17618  1.0000
  C   C120      1.0  0.68050  0.53463  0.24343  1.0000
  C   C121      1.0  0.68247  0.53000  0.32154  1.0000
  C   C122      1.0  0.76363  0.55731  0.36860  1.0000
  C   C123      1.0  0.60248  0.49874  0.35355  1.0000
  C   C124      1.0  0.51533  0.46842  0.30545  1.0000
  C   C125      1.0  0.60581  0.49846  0.43137  1.0000
  C   C126      1.0  0.76524  0.55587  0.44586  1.0000
  C   C127      1.0  0.68524  0.52763  0.47827  1.0000
  C   C128      1.0  0.68347  0.53040  0.56220  1.0000
  C   C129      1.0  0.39458  0.60014  0.74873  1.0000
  C   C130      1.0  0.38054  0.48900  0.65930  1.0000
  C   C131      1.0  0.28166  0.48883  0.65999  1.0000
  C   C132      1.0  0.29637  0.60448  0.75169  1.0000
  C   C133      1.0  0.23754  0.54730  0.70731  1.0000
  C   C134      1.0  0.13267  0.54827  0.71069  1.0000
  C   C135      1.0  0.07819  0.48092  0.70929  1.0000
  C   C136      1.0  0.08413  0.61603  0.71579  1.0000
  C   C137      1.0  0.98543  0.61418  0.71835  1.0000
  C   C138      1.0  0.97981  0.48369  0.71278  1.0000
  N   N1        1.0  0.24846  0.08797  0.91760  1.0000
  N   N2        1.0  0.75152  0.08246  0.91199  1.0000
  N   N3        1.0  0.56361  0.29664  0.45693  1.0000
  N   N4        1.0  0.06629  0.28339  0.45083  1.0000
  N   N5        1.0  0.43637  0.54312  0.70343  1.0000
  N   N6        1.0  0.93370  0.54912  0.71682  1.0000
  O   O1        1.0  0.07043  0.97426  0.90299  1.0000
  O   O2        1.0  0.90911  0.96577  0.90613  1.0000
  O   O3        1.0  0.91651  0.19747  0.90930  1.0000
  O   O4        1.0  0.07599  0.20535  0.93523  1.0000
  O   O5        1.0  0.92959  0.09700  0.02573  1.0000
  O   O6        1.0  0.09093  0.09381  0.03429  1.0000
  O   O7        1.0  0.08347  0.09072  0.80256  1.0000
  O   O8        1.0  0.92399  0.06490  0.79457  1.0000
  O   O9        1.0  0.39106  0.28456  0.34422  1.0000
  O   O10       1.0  0.22944  0.27519  0.33458  1.0000
  O   O11       1.0  0.39491  0.30341  0.57582  1.0000
  O   O12       1.0  0.23332  0.29163  0.56872  1.0000
  O   O13       1.0  0.40329  0.17722  0.45062  1.0000
  O   O14       1.0  0.24164  0.16946  0.44040  1.0000
  O   O15       1.0  0.39826  0.40963  0.47454  1.0000
  O   O16       1.0  0.23688  0.40054  0.46256  1.0000
  O   O17       1.0  0.60891  0.65580  0.71558  1.0000
  O   O18       1.0  0.77053  0.66539  0.72498  1.0000
  O   O19       1.0  0.60506  0.42428  0.69660  1.0000
  O   O20       1.0  0.76665  0.43129  0.70862  1.0000
  O   O21       1.0  0.59673  0.54936  0.82293  1.0000
  O   O22       1.0  0.75837  0.55958  0.83080  1.0000
  O   O23       1.0  0.60161  0.52558  0.59045  1.0000
  O   O24       1.0  0.76299  0.53746  0.59971  1.0000
