data_image0
_chemical_formula_structural       La8H16C44N16O44
_chemical_formula_sum              "La8 H16 C44 N16 O44"
_cell_length_a       8.651
_cell_length_b       15.345
_cell_length_c       17.421
_cell_angle_alpha    90
_cell_angle_beta     90
_cell_angle_gamma    90.001

_space_group_name_H-M_alt    "P 1"
_space_group_IT_number       1

loop_
  _space_group_symop_operation_xyz
  'x, y, z'

loop_
  _atom_site_type_symbol
  _atom_site_label
  _atom_site_symmetry_multiplicity
  _atom_site_fract_x
  _atom_site_fract_y
  _atom_site_fract_z
  _atom_site_occupancy
  La  La1       1.0  0.64421  0.26478  0.38890  1.0000
  La  La2       1.0  0.85580  0.76476  0.61108  1.0000
  La  La3       1.0  0.35579  0.73524  0.88889  1.0000
  La  La4       1.0  0.14421  0.23526  0.11109  1.0000
  La  La5       1.0  0.35579  0.73524  0.61108  1.0000
  La  La6       1.0  0.14420  0.23526  0.38890  1.0000
  La  La7       1.0  0.64421  0.26478  0.11109  1.0000
  La  La8       1.0  0.85579  0.76476  0.88889  1.0000
  H   H1        1.0  0.44807  0.00726  0.59851  1.0000
  H   H2        1.0  0.98058  0.06806  0.55363  1.0000
  H   H3        1.0  0.05194  0.50725  0.40146  1.0000
  H   H4        1.0  0.51942  0.56806  0.44636  1.0000
  H   H5        1.0  0.55194  0.99276  0.09853  1.0000
  H   H6        1.0  0.01944  0.93196  0.05364  1.0000
  H   H7        1.0  0.94807  0.49277  0.90145  1.0000
  H   H8        1.0  0.48058  0.43197  0.94634  1.0000
  H   H9        1.0  0.55194  0.99277  0.40148  1.0000
  H   H10       1.0  0.01943  0.93197  0.44635  1.0000
  H   H11       1.0  0.94807  0.49277  0.59852  1.0000
  H   H12       1.0  0.48059  0.43196  0.55363  1.0000
  H   H13       1.0  0.44806  0.00726  0.90146  1.0000
  H   H14       1.0  0.98057  0.06806  0.94634  1.0000
  H   H15       1.0  0.05194  0.50725  0.09853  1.0000
  H   H16       1.0  0.51942  0.56805  0.05363  1.0000
  C   C1        1.0  0.44499  0.17463  0.50291  1.0000
  C   C2        1.0  0.32779  0.11717  0.53823  1.0000
  C   C3        1.0  0.34302  0.03934  0.58007  1.0000
  C   C4        1.0  0.19259  0.00999  0.59112  1.0000
  C   C5        1.0  0.13376  0.92633  0.62273  1.0000
  C   C6        1.0  0.05501  0.67461  0.49708  1.0000
  C   C7        1.0  0.17221  0.61715  0.46176  1.0000
  C   C8        1.0  0.15698  0.53933  0.41991  1.0000
  C   C9        1.0  0.30742  0.50999  0.40887  1.0000
  C   C10       1.0  0.36626  0.42635  0.37726  1.0000
  C   C11       1.0  0.55501  0.82540  0.00000  1.0000
  C   C12       1.0  0.67222  0.88285  0.03824  1.0000
  C   C13       1.0  0.65699  0.96068  0.08008  1.0000
  C   C14       1.0  0.80742  0.99003  0.09112  1.0000
  C   C15       1.0  0.86625  0.07369  0.12273  1.0000
  C   C16       1.0  0.94500  0.32541  0.99709  1.0000
  C   C17       1.0  0.82779  0.38287  0.96174  1.0000
  C   C18       1.0  0.84302  0.46070  0.91990  1.0000
  C   C19       1.0  0.69259  0.49004  0.90885  1.0000
  C   C20       1.0  0.63375  0.57367  0.87725  1.0000
  C   C21       1.0  0.55502  0.82539  0.49707  1.0000
  C   C22       1.0  0.67222  0.88286  0.46176  1.0000
  C   C23       1.0  0.65699  0.96069  0.41992  1.0000
  C   C24       1.0  0.80742  0.99003  0.40887  1.0000
  C   C25       1.0  0.86625  0.07369  0.37726  1.0000
  C   C26       1.0  0.94499  0.32541  0.50290  1.0000
  C   C27       1.0  0.82780  0.38286  0.53823  1.0000
  C   C28       1.0  0.84303  0.46069  0.58008  1.0000
  C   C29       1.0  0.69259  0.49003  0.59112  1.0000
  C   C30       1.0  0.63375  0.57367  0.62272  1.0000
  C   C31       1.0  0.44499  0.17462  0.99709  1.0000
  C   C32       1.0  0.32778  0.11717  0.96174  1.0000
  C   C33       1.0  0.34301  0.03934  0.91990  1.0000
  C   C34       1.0  0.19258  0.00999  0.90886  1.0000
  C   C35       1.0  0.13376  0.92633  0.87725  1.0000
  C   C36       1.0  0.05500  0.67461  0.00000  1.0000
  C   C37       1.0  0.17221  0.61716  0.03824  1.0000
  C   C38       1.0  0.15698  0.53933  0.08008  1.0000
  C   C39       1.0  0.30742  0.50999  0.09113  1.0000
  C   C40       1.0  0.36626  0.42635  0.12273  1.0000
  C   C41       1.0  0.44993  0.20999  0.25000  1.0000
  C   C42       1.0  0.05003  0.70994  0.74998  1.0000
  C   C43       1.0  0.55008  0.79002  0.74998  1.0000
  C   C44       1.0  0.94996  0.29007  0.24999  1.0000
  N   N1        1.0  0.09843  0.06987  0.55634  1.0000
  N   N2        1.0  0.17719  0.13528  0.52360  1.0000
  N   N3        1.0  0.40157  0.56987  0.44364  1.0000
  N   N4        1.0  0.32280  0.63527  0.47639  1.0000
  N   N5        1.0  0.90158  0.93015  0.05636  1.0000
  N   N6        1.0  0.82282  0.86474  0.02361  1.0000
  N   N7        1.0  0.59843  0.43015  0.94363  1.0000
  N   N8        1.0  0.67720  0.36475  0.97638  1.0000
  N   N9        1.0  0.90158  0.93015  0.44365  1.0000
  N   N10       1.0  0.82281  0.86474  0.47639  1.0000
  N   N11       1.0  0.59844  0.43015  0.55635  1.0000
  N   N12       1.0  0.67721  0.36475  0.52359  1.0000
  N   N13       1.0  0.09842  0.06987  0.94363  1.0000
  N   N14       1.0  0.17719  0.13528  0.97638  1.0000
  N   N15       1.0  0.40157  0.56987  0.05635  1.0000
  N   N16       1.0  0.32280  0.63527  0.02360  1.0000
  O   O1        1.0  0.58620  0.15557  0.50318  1.0000
  O   O2        1.0  0.39268  0.24306  0.46708  1.0000
  O   O3        1.0  0.98857  0.91290  0.61967  1.0000
  O   O4        1.0  0.23476  0.87331  0.64711  1.0000
  O   O5        1.0  0.39269  0.18924  0.31586  1.0000
  O   O6        1.0  0.91380  0.65556  0.49679  1.0000
  O   O7        1.0  0.10731  0.74305  0.53290  1.0000
  O   O8        1.0  0.51145  0.41293  0.38031  1.0000
  O   O9        1.0  0.26526  0.37332  0.35287  1.0000
  O   O10       1.0  0.10730  0.68923  0.68412  1.0000
  O   O11       1.0  0.41381  0.84445  0.00320  1.0000
  O   O12       1.0  0.60731  0.75696  0.96707  1.0000
  O   O13       1.0  0.01143  0.08713  0.11968  1.0000
  O   O14       1.0  0.76524  0.12671  0.14712  1.0000
  O   O15       1.0  0.60730  0.81079  0.81585  1.0000
  O   O16       1.0  0.08619  0.34446  0.99679  1.0000
  O   O17       1.0  0.89270  0.25697  0.03291  1.0000
  O   O18       1.0  0.48856  0.58709  0.88030  1.0000
  O   O19       1.0  0.73474  0.62670  0.85286  1.0000
  O   O20       1.0  0.89270  0.31079  0.18413  1.0000
  O   O21       1.0  0.41380  0.84445  0.49680  1.0000
  O   O22       1.0  0.60732  0.75696  0.53290  1.0000
  O   O23       1.0  0.01143  0.08713  0.38031  1.0000
  O   O24       1.0  0.76524  0.12671  0.35287  1.0000
  O   O25       1.0  0.60730  0.81079  0.68412  1.0000
  O   O26       1.0  0.08620  0.34446  0.50319  1.0000
  O   O27       1.0  0.89269  0.25697  0.46708  1.0000
  O   O28       1.0  0.48856  0.58708  0.61967  1.0000
  O   O29       1.0  0.73474  0.62670  0.64711  1.0000
  O   O30       1.0  0.89270  0.31079  0.31586  1.0000
  O   O31       1.0  0.58619  0.15558  0.99678  1.0000
  O   O32       1.0  0.39269  0.24306  0.03291  1.0000
  O   O33       1.0  0.98857  0.91289  0.88030  1.0000
  O   O34       1.0  0.23476  0.87331  0.85286  1.0000
  O   O35       1.0  0.39269  0.18924  0.18413  1.0000
  O   O36       1.0  0.91381  0.65556  0.00319  1.0000
  O   O37       1.0  0.10730  0.74305  0.96707  1.0000
  O   O38       1.0  0.51145  0.41293  0.11968  1.0000
  O   O39       1.0  0.26526  0.37332  0.14712  1.0000
  O   O40       1.0  0.10730  0.68923  0.81585  1.0000
  O   O41       1.0  0.57959  0.25527  0.24999  1.0000
  O   O42       1.0  0.92042  0.75527  0.74998  1.0000
  O   O43       1.0  0.42040  0.74475  0.74998  1.0000
  O   O44       1.0  0.07958  0.24476  0.24999  1.0000
