data_image0
_chemical_formula_structural       Cu16P16H64C32O48
_chemical_formula_sum              "Cu16 P16 H64 C32 O48"
_cell_length_a       8.578
_cell_length_b       13.866
_cell_length_c       21.033
_cell_angle_alpha    109.128
_cell_angle_beta     92.71
_cell_angle_gamma    89.975

_space_group_name_H-M_alt    "P 1"
_space_group_IT_number       1

loop_
  _space_group_symop_operation_xyz
  'x, y, z'

loop_
  _atom_site_type_symbol
  _atom_site_label
  _atom_site_symmetry_multiplicity
  _atom_site_fract_x
  _atom_site_fract_y
  _atom_site_fract_z
  _atom_site_occupancy
  Cu  Cu1       1.0  0.25032  0.00030  0.25005  1.0000
  Cu  Cu2       1.0  0.25007  0.00132  0.75011  1.0000
  Cu  Cu3       1.0  0.25038  0.50032  0.25005  1.0000
  Cu  Cu4       1.0  0.24999  0.50135  0.75009  1.0000
  Cu  Cu5       1.0  0.75028  0.00029  0.25004  1.0000
  Cu  Cu6       1.0  0.75006  0.00133  0.75011  1.0000
  Cu  Cu7       1.0  0.75035  0.50033  0.25005  1.0000
  Cu  Cu8       1.0  0.74999  0.50135  0.75009  1.0000
  Cu  Cu9       1.0  0.25047  0.25029  0.25004  1.0000
  Cu  Cu10      1.0  0.25026  0.25121  0.74999  1.0000
  Cu  Cu11      1.0  0.25037  0.75023  0.25001  1.0000
  Cu  Cu12      1.0  0.25021  0.75119  0.74997  1.0000
  Cu  Cu13      1.0  0.75045  0.25029  0.25004  1.0000
  Cu  Cu14      1.0  0.75024  0.25121  0.74999  1.0000
  Cu  Cu15      1.0  0.75033  0.75024  0.25001  1.0000
  Cu  Cu16      1.0  0.75023  0.75119  0.74997  1.0000
  P   P1        1.0  0.49180  0.08891  0.17674  1.0000
  P   P2        1.0  0.49168  0.08976  0.67674  1.0000
  P   P3        1.0  0.49180  0.58882  0.17672  1.0000
  P   P4        1.0  0.49160  0.58976  0.67673  1.0000
  P   P5        1.0  0.99178  0.08890  0.17674  1.0000
  P   P6        1.0  0.99165  0.08977  0.67675  1.0000
  P   P7        1.0  0.99179  0.58884  0.17673  1.0000
  P   P8        1.0  0.99159  0.58976  0.67671  1.0000
  P   P9        1.0  0.00880  0.41171  0.32329  1.0000
  P   P10       1.0  0.00854  0.41273  0.82331  1.0000
  P   P11       1.0  0.00871  0.91164  0.32329  1.0000
  P   P12       1.0  0.00856  0.91269  0.82300  1.0000
  P   P13       1.0  0.50880  0.41173  0.32329  1.0000
  P   P14       1.0  0.50851  0.41272  0.82331  1.0000
  P   P15       1.0  0.50868  0.91165  0.32330  1.0000
  P   P16       1.0  0.50855  0.91269  0.82330  1.0000
  H   H1        1.0  0.15159  0.48405  0.09455  1.0000
  H   H2        1.0  0.15184  0.48506  0.59471  1.0000
  H   H3        1.0  0.15176  0.98432  0.09453  1.0000
  H   H4        1.0  0.15191  0.98512  0.59470  1.0000
  H   H5        1.0  0.65153  0.48400  0.09450  1.0000
  H   H6        1.0  0.65182  0.48506  0.59473  1.0000
  H   H7        1.0  0.65176  0.98436  0.09453  1.0000
  H   H8        1.0  0.65196  0.98515  0.59478  1.0000
  H   H9        1.0  0.38286  0.45476  0.03571  1.0000
  H   H10       1.0  0.38315  0.45490  0.53589  1.0000
  H   H11       1.0  0.38290  0.95487  0.03575  1.0000
  H   H12       1.0  0.38323  0.95493  0.53595  1.0000
  H   H13       1.0  0.88285  0.45476  0.03574  1.0000
  H   H14       1.0  0.88311  0.45490  0.53588  1.0000
  H   H15       1.0  0.88287  0.95488  0.03576  1.0000
  H   H16       1.0  0.88315  0.95495  0.53595  1.0000
  H   H17       1.0  0.34877  0.38942  0.40569  1.0000
  H   H18       1.0  0.34839  0.39006  0.90553  1.0000
  H   H19       1.0  0.34884  0.88928  0.40572  1.0000
  H   H20       1.0  0.34845  0.89002  0.90554  1.0000
  H   H21       1.0  0.84872  0.38939  0.40567  1.0000
  H   H22       1.0  0.84835  0.39011  0.90554  1.0000
  H   H23       1.0  0.84879  0.88928  0.40571  1.0000
  H   H24       1.0  0.84844  0.89002  0.90553  1.0000
  H   H25       1.0  0.11736  0.41897  0.46465  1.0000
  H   H26       1.0  0.11699  0.41885  0.96444  1.0000
  H   H27       1.0  0.11739  0.91896  0.46471  1.0000
  H   H28       1.0  0.11698  0.91891  0.96447  1.0000
  H   H29       1.0  0.61738  0.41899  0.46467  1.0000
  H   H30       1.0  0.61699  0.41883  0.96442  1.0000
  H   H31       1.0  0.61743  0.91897  0.46469  1.0000
  H   H32       1.0  0.61702  0.91893  0.96447  1.0000
  H   H33       1.0  0.34832  0.01596  0.40540  1.0000
  H   H34       1.0  0.34844  0.01689  0.90558  1.0000
  H   H35       1.0  0.34846  0.51614  0.40538  1.0000
  H   H36       1.0  0.34846  0.51699  0.90562  1.0000
  H   H37       1.0  0.84832  0.01596  0.40539  1.0000
  H   H38       1.0  0.84840  0.01689  0.90500  1.0000
  H   H39       1.0  0.84841  0.51611  0.40530  1.0000
  H   H40       1.0  0.84850  0.51702  0.90563  1.0000
  H   H41       1.0  0.11722  0.04593  0.46417  1.0000
  H   H42       1.0  0.11746  0.04607  0.96433  1.0000
  H   H43       1.0  0.11724  0.54600  0.46416  1.0000
  H   H44       1.0  0.11749  0.54609  0.96438  1.0000
  H   H45       1.0  0.61723  0.04596  0.46416  1.0000
  H   H46       1.0  0.61744  0.04610  0.96432  1.0000
  H   H47       1.0  0.61725  0.54602  0.46419  1.0000
  H   H48       1.0  0.61747  0.54607  0.96435  1.0000
  H   H49       1.0  0.15185  0.11106  0.09432  1.0000
  H   H50       1.0  0.15160  0.11168  0.59400  1.0000
  H   H51       1.0  0.15205  0.61081  0.09431  1.0000
  H   H52       1.0  0.15155  0.61166  0.59417  1.0000
  H   H53       1.0  0.65179  0.11109  0.09431  1.0000
  H   H54       1.0  0.65161  0.11171  0.59422  1.0000
  H   H55       1.0  0.65209  0.61075  0.09430  1.0000
  H   H56       1.0  0.65155  0.61166  0.59419  1.0000
  H   H57       1.0  0.38302  0.08197  0.03549  1.0000
  H   H58       1.0  0.38281  0.08187  0.53533  1.0000
  H   H59       1.0  0.38313  0.58195  0.03554  1.0000
  H   H60       1.0  0.38273  0.58188  0.53530  1.0000
  H   H61       1.0  0.88304  0.08198  0.03551  1.0000
  H   H62       1.0  0.88275  0.08187  0.53532  1.0000
  H   H63       1.0  0.88307  0.58194  0.03555  1.0000
  H   H64       1.0  0.88271  0.58189  0.53529  1.0000
  C   C1        1.0  0.07477  0.04791  0.09481  1.0000
  C   C2        1.0  0.07470  0.04853  0.59483  1.0000
  C   C3        1.0  0.07478  0.54776  0.09480  1.0000
  C   C4        1.0  0.07465  0.54851  0.59479  1.0000
  C   C5        1.0  0.57473  0.04794  0.09480  1.0000
  C   C6        1.0  0.57473  0.04853  0.59483  1.0000
  C   C7        1.0  0.57476  0.54772  0.09479  1.0000
  C   C8        1.0  0.57464  0.54851  0.59482  1.0000
  C   C9        1.0  0.45914  0.01728  0.03350  1.0000
  C   C10       1.0  0.45917  0.01737  0.53352  1.0000
  C   C11       1.0  0.45916  0.51720  0.03350  1.0000
  C   C12       1.0  0.45911  0.51739  0.53350  1.0000
  C   C13       1.0  0.95914  0.01729  0.03352  1.0000
  C   C14       1.0  0.95912  0.01737  0.53352  1.0000
  C   C15       1.0  0.95912  0.51721  0.03352  1.0000
  C   C16       1.0  0.95908  0.51739  0.53348  1.0000
  C   C17       1.0  0.42567  0.45265  0.40519  1.0000
  C   C18       1.0  0.42547  0.45331  0.90522  1.0000
  C   C19       1.0  0.42563  0.95256  0.40522  1.0000
  C   C20       1.0  0.42549  0.95328  0.90521  1.0000
  C   C21       1.0  0.92562  0.45263  0.40518  1.0000
  C   C22       1.0  0.92548  0.45334  0.90523  1.0000
  C   C23       1.0  0.92561  0.95254  0.40521  1.0000
  C   C24       1.0  0.92547  0.95329  0.90520  1.0000
  C   C25       1.0  0.04113  0.48355  0.46650  1.0000
  C   C26       1.0  0.04107  0.48366  0.96653  1.0000
  C   C27       1.0  0.04113  0.98352  0.46653  1.0000
  C   C28       1.0  0.04104  0.98370  0.96651  1.0000
  C   C29       1.0  0.54113  0.48357  0.46652  1.0000
  C   C30       1.0  0.54107  0.48365  0.96651  1.0000
  C   C31       1.0  0.54118  0.98354  0.46650  1.0000
  C   C32       1.0  0.54107  0.98371  0.96650  1.0000
  O   O1        1.0  0.39982  0.49777  0.18337  1.0000
  O   O2        1.0  0.39955  0.49880  0.68344  1.0000
  O   O3        1.0  0.39980  0.99789  0.18338  1.0000
  O   O4        1.0  0.39962  0.99884  0.68345  1.0000
  O   O5        1.0  0.89980  0.49779  0.18338  1.0000
  O   O6        1.0  0.89954  0.49880  0.68343  1.0000
  O   O7        1.0  0.89978  0.99788  0.18338  1.0000
  O   O8        1.0  0.89959  0.99884  0.68345  1.0000
  O   O9        1.0  0.10074  0.31400  0.31672  1.0000
  O   O10       1.0  0.10065  0.31508  0.81668  1.0000
  O   O11       1.0  0.10063  0.81391  0.31669  1.0000
  O   O12       1.0  0.10066  0.81504  0.81667  1.0000
  O   O13       1.0  0.60075  0.31402  0.31670  1.0000
  O   O14       1.0  0.60062  0.31507  0.81667  1.0000
  O   O15       1.0  0.60060  0.81393  0.31669  1.0000
  O   O16       1.0  0.60065  0.81503  0.81666  1.0000
  O   O17       1.0  0.10059  0.00272  0.31666  1.0000
  O   O18       1.0  0.10031  0.00387  0.81670  1.0000
  O   O19       1.0  0.10064  0.50284  0.31667  1.0000
  O   O20       1.0  0.10028  0.50393  0.81673  1.0000
  O   O21       1.0  0.60056  0.00273  0.31660  1.0000
  O   O22       1.0  0.60031  0.00385  0.81670  1.0000
  O   O23       1.0  0.60062  0.50287  0.31667  1.0000
  O   O24       1.0  0.60026  0.50392  0.81672  1.0000
  O   O25       1.0  0.39990  0.18664  0.18329  1.0000
  O   O26       1.0  0.39977  0.18746  0.68326  1.0000
  O   O27       1.0  0.39987  0.68654  0.18326  1.0000
  O   O28       1.0  0.39972  0.68747  0.68324  1.0000
  O   O29       1.0  0.89988  0.18663  0.18328  1.0000
  O   O30       1.0  0.89977  0.18748  0.68320  1.0000
  O   O31       1.0  0.89987  0.68656  0.18327  1.0000
  O   O32       1.0  0.89972  0.68747  0.68323  1.0000
  O   O33       1.0  0.13587  0.11566  0.23055  1.0000
  O   O34       1.0  0.13571  0.11660  0.73057  1.0000
  O   O35       1.0  0.13588  0.61563  0.23053  1.0000
  O   O36       1.0  0.13561  0.61661  0.73054  1.0000
  O   O37       1.0  0.63587  0.11567  0.23054  1.0000
  O   O38       1.0  0.63565  0.11662  0.73058  1.0000
  O   O39       1.0  0.63585  0.61564  0.23052  1.0000
  O   O40       1.0  0.63561  0.61661  0.73054  1.0000
  O   O41       1.0  0.36476  0.38492  0.26949  1.0000
  O   O42       1.0  0.36445  0.38596  0.76951  1.0000
  O   O43       1.0  0.36467  0.88488  0.26947  1.0000
  O   O44       1.0  0.36449  0.88594  0.76950  1.0000
  O   O45       1.0  0.86476  0.38491  0.26947  1.0000
  O   O46       1.0  0.86444  0.38597  0.76952  1.0000
  O   O47       1.0  0.86465  0.88489  0.26947  1.0000
  O   O48       1.0  0.86447  0.88594  0.76950  1.0000
