data_image0
_chemical_formula_structural       Cd8H160C192N32Cl16
_chemical_formula_sum              "Cd8 H160 C192 N32 Cl16"
_cell_length_a       18.3
_cell_length_b       17.826
_cell_length_c       15.734
_cell_angle_alpha    90
_cell_angle_beta     90
_cell_angle_gamma    90

_space_group_name_H-M_alt    "P 1"
_space_group_IT_number       1

loop_
  _space_group_symop_operation_xyz
  'x, y, z'

loop_
  _atom_site_type_symbol
  _atom_site_label
  _atom_site_symmetry_multiplicity
  _atom_site_fract_x
  _atom_site_fract_y
  _atom_site_fract_z
  _atom_site_occupancy
  Cd  Cd1       1.0  0.00000  0.25001  0.04646  1.0000
  Cd  Cd2       1.0  0.50000  0.25001  0.04646  1.0000
  Cd  Cd3       1.0  0.00000  0.75002  0.45353  1.0000
  Cd  Cd4       1.0  0.50000  0.75002  0.45353  1.0000
  Cd  Cd5       1.0  0.00000  0.75002  0.95352  1.0000
  Cd  Cd6       1.0  0.50000  0.75002  0.95352  1.0000
  Cd  Cd7       1.0  0.00000  0.25001  0.54645  1.0000
  Cd  Cd8       1.0  0.50000  0.25001  0.54645  1.0000
  H   H1        1.0  0.48732  0.42125  0.97794  1.0000
  H   H2        1.0  0.98732  0.42125  0.97794  1.0000
  H   H3        1.0  0.42144  0.50472  0.87628  1.0000
  H   H4        1.0  0.92144  0.50472  0.87628  1.0000
  H   H5        1.0  0.32852  0.30404  0.76462  1.0000
  H   H6        1.0  0.82852  0.30404  0.76462  1.0000
  H   H7        1.0  0.39369  0.23034  0.87639  1.0000
  H   H8        1.0  0.89369  0.23034  0.87639  1.0000
  H   H9        1.0  0.33417  0.43566  0.68441  1.0000
  H   H10       1.0  0.83417  0.43566  0.68441  1.0000
  H   H11       1.0  0.23037  0.45966  0.83585  1.0000
  H   H12       1.0  0.73037  0.45966  0.83585  1.0000
  H   H13       1.0  0.26175  0.36260  0.62725  1.0000
  H   H14       1.0  0.76175  0.36259  0.62725  1.0000
  H   H15       1.0  0.16602  0.28464  0.55910  1.0000
  H   H16       1.0  0.66602  0.28464  0.55910  1.0000
  H   H17       1.0  0.00717  0.35659  0.72750  1.0000
  H   H18       1.0  0.50717  0.35659  0.72750  1.0000
  H   H19       1.0  0.09771  0.43200  0.81001  1.0000
  H   H20       1.0  0.59771  0.43200  0.81001  1.0000
  H   H21       1.0  0.01268  0.07876  0.97794  1.0000
  H   H22       1.0  0.51268  0.07876  0.97794  1.0000
  H   H23       1.0  0.07856  0.99529  0.87628  1.0000
  H   H24       1.0  0.57857  0.99529  0.87628  1.0000
  H   H25       1.0  0.17148  0.19597  0.76462  1.0000
  H   H26       1.0  0.67148  0.19597  0.76462  1.0000
  H   H27       1.0  0.10631  0.26967  0.87639  1.0000
  H   H28       1.0  0.60631  0.26967  0.87639  1.0000
  H   H29       1.0  0.16583  0.06436  0.68441  1.0000
  H   H30       1.0  0.66583  0.06435  0.68441  1.0000
  H   H31       1.0  0.26964  0.04035  0.83580  1.0000
  H   H32       1.0  0.76964  0.04035  0.83580  1.0000
  H   H33       1.0  0.23825  0.13742  0.62725  1.0000
  H   H34       1.0  0.73825  0.13742  0.62725  1.0000
  H   H35       1.0  0.33398  0.21538  0.55910  1.0000
  H   H36       1.0  0.83398  0.21538  0.55910  1.0000
  H   H37       1.0  0.49283  0.14343  0.72750  1.0000
  H   H38       1.0  0.99283  0.14343  0.72750  1.0000
  H   H39       1.0  0.40229  0.06802  0.81001  1.0000
  H   H40       1.0  0.90230  0.06802  0.81001  1.0000
  H   H41       1.0  0.48732  0.57877  0.52203  1.0000
  H   H42       1.0  0.98732  0.57877  0.52203  1.0000
  H   H43       1.0  0.42144  0.49530  0.62300  1.0000
  H   H44       1.0  0.92144  0.49530  0.62369  1.0000
  H   H45       1.0  0.32852  0.69599  0.73535  1.0000
  H   H46       1.0  0.82852  0.69599  0.73535  1.0000
  H   H47       1.0  0.39369  0.76969  0.62350  1.0000
  H   H48       1.0  0.89369  0.76969  0.62359  1.0000
  H   H49       1.0  0.33417  0.56437  0.81557  1.0000
  H   H50       1.0  0.83417  0.56437  0.81557  1.0000
  H   H51       1.0  0.23037  0.54036  0.66412  1.0000
  H   H52       1.0  0.73037  0.54036  0.66410  1.0000
  H   H53       1.0  0.26175  0.63743  0.87272  1.0000
  H   H54       1.0  0.76175  0.63743  0.87272  1.0000
  H   H55       1.0  0.16602  0.71539  0.94087  1.0000
  H   H56       1.0  0.66602  0.71539  0.94087  1.0000
  H   H57       1.0  0.00717  0.64344  0.77247  1.0000
  H   H58       1.0  0.50717  0.64344  0.77247  1.0000
  H   H59       1.0  0.09771  0.56803  0.68996  1.0000
  H   H60       1.0  0.59771  0.56803  0.68996  1.0000
  H   H61       1.0  0.01268  0.92126  0.52203  1.0000
  H   H62       1.0  0.51268  0.92126  0.52203  1.0000
  H   H63       1.0  0.07856  0.00000  0.62300  1.0000
  H   H64       1.0  0.57857  0.00000  0.62300  1.0000
  H   H65       1.0  0.17148  0.80405  0.73535  1.0000
  H   H66       1.0  0.67148  0.80405  0.73535  1.0000
  H   H67       1.0  0.10631  0.73035  0.62350  1.0000
  H   H68       1.0  0.60632  0.73035  0.62350  1.0000
  H   H69       1.0  0.16583  0.93567  0.81557  1.0000
  H   H70       1.0  0.66583  0.93567  0.81557  1.0000
  H   H71       1.0  0.26964  0.95967  0.66412  1.0000
  H   H72       1.0  0.76964  0.95967  0.66412  1.0000
  H   H73       1.0  0.23825  0.86261  0.87272  1.0000
  H   H74       1.0  0.73825  0.86261  0.87272  1.0000
  H   H75       1.0  0.33398  0.78465  0.94087  1.0000
  H   H76       1.0  0.83398  0.78465  0.94087  1.0000
  H   H77       1.0  0.49283  0.85660  0.77247  1.0000
  H   H78       1.0  0.99283  0.85660  0.77247  1.0000
  H   H79       1.0  0.40229  0.93201  0.68996  1.0000
  H   H80       1.0  0.90230  0.93201  0.68996  1.0000
  H   H81       1.0  0.01268  0.57877  0.02204  1.0000
  H   H82       1.0  0.51268  0.57878  0.02204  1.0000
  H   H83       1.0  0.07857  0.49530  0.12370  1.0000
  H   H84       1.0  0.57857  0.49531  0.12370  1.0000
  H   H85       1.0  0.17148  0.69599  0.23536  1.0000
  H   H86       1.0  0.67148  0.69599  0.23536  1.0000
  H   H87       1.0  0.10631  0.76969  0.12359  1.0000
  H   H88       1.0  0.60632  0.76969  0.12359  1.0000
  H   H89       1.0  0.16583  0.56436  0.31558  1.0000
  H   H90       1.0  0.66583  0.56437  0.31557  1.0000
  H   H91       1.0  0.26964  0.54036  0.16412  1.0000
  H   H92       1.0  0.76964  0.54037  0.16413  1.0000
  H   H93       1.0  0.23825  0.63743  0.37273  1.0000
  H   H94       1.0  0.73825  0.63743  0.37270  1.0000
  H   H95       1.0  0.33398  0.71539  0.44088  1.0000
  H   H96       1.0  0.83398  0.71539  0.44088  1.0000
  H   H97       1.0  0.49283  0.64344  0.27248  1.0000
  H   H98       1.0  0.99283  0.64344  0.27248  1.0000
  H   H99       1.0  0.40230  0.56803  0.18997  1.0000
  H   H100      1.0  0.90230  0.56803  0.18997  1.0000
  H   H101      1.0  0.48732  0.92126  0.02204  1.0000
  H   H102      1.0  0.98733  0.92127  0.02204  1.0000
  H   H103      1.0  0.42144  0.00000  0.12370  1.0000
  H   H104      1.0  0.92144  0.00000  0.12370  1.0000
  H   H105      1.0  0.32852  0.80405  0.23536  1.0000
  H   H106      1.0  0.82852  0.80405  0.23536  1.0000
  H   H107      1.0  0.39369  0.73035  0.12359  1.0000
  H   H108      1.0  0.89369  0.73035  0.12359  1.0000
  H   H109      1.0  0.33417  0.93567  0.31557  1.0000
  H   H110      1.0  0.83417  0.93567  0.31550  1.0000
  H   H111      1.0  0.23037  0.95967  0.16412  1.0000
  H   H112      1.0  0.73037  0.95967  0.16412  1.0000
  H   H113      1.0  0.26175  0.86261  0.37270  1.0000
  H   H114      1.0  0.76175  0.86261  0.37273  1.0000
  H   H115      1.0  0.16602  0.78465  0.44088  1.0000
  H   H116      1.0  0.66602  0.78465  0.44088  1.0000
  H   H117      1.0  0.00717  0.85660  0.27248  1.0000
  H   H118      1.0  0.50717  0.85660  0.27248  1.0000
  H   H119      1.0  0.09771  0.93201  0.18997  1.0000
  H   H120      1.0  0.59771  0.93201  0.18997  1.0000
  H   H121      1.0  0.01268  0.42125  0.47795  1.0000
  H   H122      1.0  0.51268  0.42125  0.47790  1.0000
  H   H123      1.0  0.07856  0.50472  0.37628  1.0000
  H   H124      1.0  0.57857  0.50472  0.37628  1.0000
  H   H125      1.0  0.17148  0.30404  0.26460  1.0000
  H   H126      1.0  0.67148  0.30404  0.26463  1.0000
  H   H127      1.0  0.10631  0.23034  0.37639  1.0000
  H   H128      1.0  0.60631  0.23034  0.37639  1.0000
  H   H129      1.0  0.16583  0.43565  0.18442  1.0000
  H   H130      1.0  0.66583  0.43566  0.18441  1.0000
  H   H131      1.0  0.26964  0.45966  0.33586  1.0000
  H   H132      1.0  0.76964  0.45966  0.33586  1.0000
  H   H133      1.0  0.23825  0.36259  0.12726  1.0000
  H   H134      1.0  0.73825  0.36260  0.12726  1.0000
  H   H135      1.0  0.33398  0.28464  0.05910  1.0000
  H   H136      1.0  0.83398  0.28463  0.05911  1.0000
  H   H137      1.0  0.49283  0.35659  0.22751  1.0000
  H   H138      1.0  0.99283  0.35658  0.22751  1.0000
  H   H139      1.0  0.40229  0.43200  0.31002  1.0000
  H   H140      1.0  0.90230  0.43200  0.31002  1.0000
  H   H141      1.0  0.48732  0.07876  0.47795  1.0000
  H   H142      1.0  0.98732  0.07876  0.47795  1.0000
  H   H143      1.0  0.42144  0.99529  0.37628  1.0000
  H   H144      1.0  0.92144  0.99529  0.37628  1.0000
  H   H145      1.0  0.32852  0.19597  0.26460  1.0000
  H   H146      1.0  0.82852  0.19597  0.26460  1.0000
  H   H147      1.0  0.39369  0.26967  0.37639  1.0000
  H   H148      1.0  0.89369  0.26968  0.37639  1.0000
  H   H149      1.0  0.33417  0.06436  0.18441  1.0000
  H   H150      1.0  0.83417  0.06436  0.18442  1.0000
  H   H151      1.0  0.23037  0.04035  0.33586  1.0000
  H   H152      1.0  0.73037  0.04035  0.33586  1.0000
  H   H153      1.0  0.26175  0.13742  0.12726  1.0000
  H   H154      1.0  0.76175  0.13742  0.12726  1.0000
  H   H155      1.0  0.16602  0.21538  0.05911  1.0000
  H   H156      1.0  0.66602  0.21538  0.05910  1.0000
  H   H157      1.0  0.00717  0.14343  0.22751  1.0000
  H   H158      1.0  0.50717  0.14343  0.22751  1.0000
  H   H159      1.0  0.09771  0.06802  0.31002  1.0000
  H   H160      1.0  0.59771  0.06802  0.31002  1.0000
  C   C1        1.0  0.45033  0.39821  0.93018  1.0000
  C   C2        1.0  0.95034  0.39821  0.93018  1.0000
  C   C3        1.0  0.41433  0.44403  0.87191  1.0000
  C   C4        1.0  0.91433  0.44403  0.87191  1.0000
  C   C5        1.0  0.36849  0.41142  0.81098  1.0000
  C   C6        1.0  0.86850  0.41142  0.81090  1.0000
  C   C7        1.0  0.36227  0.33278  0.81151  1.0000
  C   C8        1.0  0.86227  0.33278  0.81151  1.0000
  C   C9        1.0  0.39905  0.29123  0.87282  1.0000
  C   C10       1.0  0.89905  0.29123  0.87282  1.0000
  C   C11       1.0  0.32395  0.45644  0.74927  1.0000
  C   C12       1.0  0.82396  0.45644  0.74927  1.0000
  C   C13       1.0  0.24001  0.45836  0.76680  1.0000
  C   C14       1.0  0.74001  0.45836  0.76680  1.0000
  C   C15       1.0  0.18769  0.40566  0.72481  1.0000
  C   C16       1.0  0.68770  0.40566  0.72481  1.0000
  C   C17       1.0  0.20639  0.36300  0.65320  1.0000
  C   C18       1.0  0.70639  0.36300  0.65320  1.0000
  C   C19       1.0  0.15298  0.31993  0.61361  1.0000
  C   C20       1.0  0.65298  0.31992  0.61361  1.0000
  C   C21       1.0  0.06446  0.35878  0.70846  1.0000
  C   C22       1.0  0.56446  0.35878  0.70846  1.0000
  C   C23       1.0  0.11506  0.40148  0.75340  1.0000
  C   C24       1.0  0.61506  0.40148  0.75343  1.0000
  C   C25       1.0  0.04967  0.10181  0.93018  1.0000
  C   C26       1.0  0.54967  0.10181  0.93018  1.0000
  C   C27       1.0  0.08566  0.05598  0.87191  1.0000
  C   C28       1.0  0.58566  0.05598  0.87191  1.0000
  C   C29       1.0  0.13151  0.08859  0.81098  1.0000
  C   C30       1.0  0.63151  0.08859  0.81098  1.0000
  C   C31       1.0  0.13773  0.16723  0.81150  1.0000
  C   C32       1.0  0.63773  0.16723  0.81150  1.0000
  C   C33       1.0  0.10096  0.20879  0.87282  1.0000
  C   C34       1.0  0.60096  0.20879  0.87282  1.0000
  C   C35       1.0  0.17605  0.04358  0.74927  1.0000
  C   C36       1.0  0.67605  0.04358  0.74927  1.0000
  C   C37       1.0  0.25999  0.04165  0.76680  1.0000
  C   C38       1.0  0.75999  0.04165  0.76680  1.0000
  C   C39       1.0  0.31231  0.09435  0.72480  1.0000
  C   C40       1.0  0.81231  0.09435  0.72480  1.0000
  C   C41       1.0  0.29361  0.13702  0.65320  1.0000
  C   C42       1.0  0.79361  0.13702  0.65320  1.0000
  C   C43       1.0  0.34703  0.18009  0.61361  1.0000
  C   C44       1.0  0.84703  0.18009  0.61361  1.0000
  C   C45       1.0  0.43554  0.14123  0.70846  1.0000
  C   C46       1.0  0.93554  0.14123  0.70846  1.0000
  C   C47       1.0  0.38494  0.09854  0.75344  1.0000
  C   C48       1.0  0.88494  0.09854  0.75344  1.0000
  C   C49       1.0  0.45033  0.60182  0.56979  1.0000
  C   C50       1.0  0.95033  0.60182  0.56979  1.0000
  C   C51       1.0  0.41434  0.55600  0.62806  1.0000
  C   C52       1.0  0.91435  0.55600  0.62806  1.0000
  C   C53       1.0  0.36849  0.58860  0.68899  1.0000
  C   C54       1.0  0.86849  0.58860  0.68890  1.0000
  C   C55       1.0  0.36227  0.66724  0.68847  1.0000
  C   C56       1.0  0.86227  0.66724  0.68847  1.0000
  C   C57       1.0  0.39904  0.70880  0.62715  1.0000
  C   C58       1.0  0.89904  0.70880  0.62715  1.0000
  C   C59       1.0  0.32394  0.54360  0.75070  1.0000
  C   C60       1.0  0.82394  0.54360  0.75070  1.0000
  C   C61       1.0  0.24000  0.54166  0.73317  1.0000
  C   C62       1.0  0.74000  0.54166  0.73317  1.0000
  C   C63       1.0  0.18769  0.59436  0.77510  1.0000
  C   C64       1.0  0.68770  0.59436  0.77518  1.0000
  C   C65       1.0  0.20639  0.63704  0.84677  1.0000
  C   C66       1.0  0.70639  0.63704  0.84677  1.0000
  C   C67       1.0  0.15297  0.68010  0.88637  1.0000
  C   C68       1.0  0.65297  0.68010  0.88637  1.0000
  C   C69       1.0  0.06446  0.64124  0.79151  1.0000
  C   C70       1.0  0.56446  0.64124  0.79151  1.0000
  C   C71       1.0  0.11506  0.59856  0.74653  1.0000
  C   C72       1.0  0.61506  0.59856  0.74653  1.0000
  C   C73       1.0  0.04967  0.89822  0.56979  1.0000
  C   C74       1.0  0.54967  0.89822  0.56979  1.0000
  C   C75       1.0  0.08566  0.94404  0.62806  1.0000
  C   C76       1.0  0.58566  0.94404  0.62806  1.0000
  C   C77       1.0  0.13151  0.91143  0.68899  1.0000
  C   C78       1.0  0.63151  0.91143  0.68899  1.0000
  C   C79       1.0  0.13773  0.83279  0.68847  1.0000
  C   C80       1.0  0.63773  0.83279  0.68847  1.0000
  C   C81       1.0  0.10096  0.79124  0.62715  1.0000
  C   C82       1.0  0.60096  0.79124  0.62715  1.0000
  C   C83       1.0  0.17605  0.95645  0.75070  1.0000
  C   C84       1.0  0.67605  0.95645  0.75070  1.0000
  C   C85       1.0  0.25999  0.95838  0.73317  1.0000
  C   C86       1.0  0.75999  0.95838  0.73317  1.0000
  C   C87       1.0  0.31230  0.90567  0.77517  1.0000
  C   C88       1.0  0.81231  0.90567  0.77517  1.0000
  C   C89       1.0  0.29361  0.86301  0.84677  1.0000
  C   C90       1.0  0.79361  0.86301  0.84677  1.0000
  C   C91       1.0  0.34703  0.81994  0.88636  1.0000
  C   C92       1.0  0.84703  0.81994  0.88636  1.0000
  C   C93       1.0  0.43554  0.85880  0.79151  1.0000
  C   C94       1.0  0.93554  0.85880  0.79151  1.0000
  C   C95       1.0  0.38494  0.90149  0.74654  1.0000
  C   C96       1.0  0.88494  0.90149  0.74654  1.0000
  C   C97       1.0  0.04967  0.60182  0.06979  1.0000
  C   C98       1.0  0.54967  0.60182  0.06980  1.0000
  C   C99       1.0  0.08565  0.55600  0.12807  1.0000
  C   C100      1.0  0.58567  0.55600  0.12800  1.0000
  C   C101      1.0  0.13151  0.58860  0.18899  1.0000
  C   C102      1.0  0.63151  0.58861  0.18900  1.0000
  C   C103      1.0  0.13773  0.66724  0.18848  1.0000
  C   C104      1.0  0.63774  0.66725  0.18847  1.0000
  C   C105      1.0  0.10096  0.70880  0.12716  1.0000
  C   C106      1.0  0.60096  0.70880  0.12716  1.0000
  C   C107      1.0  0.17606  0.54360  0.25071  1.0000
  C   C108      1.0  0.67605  0.54358  0.25070  1.0000
  C   C109      1.0  0.26000  0.54166  0.23317  1.0000
  C   C110      1.0  0.75999  0.54166  0.23318  1.0000
  C   C111      1.0  0.31231  0.59436  0.27518  1.0000
  C   C112      1.0  0.81231  0.59437  0.27517  1.0000
  C   C113      1.0  0.29361  0.63704  0.34678  1.0000
  C   C114      1.0  0.79362  0.63702  0.34678  1.0000
  C   C115      1.0  0.34703  0.68010  0.38637  1.0000
  C   C116      1.0  0.84703  0.68010  0.38637  1.0000
  C   C117      1.0  0.43554  0.64123  0.29152  1.0000
  C   C118      1.0  0.93554  0.64125  0.29151  1.0000
  C   C119      1.0  0.38494  0.59856  0.24654  1.0000
  C   C120      1.0  0.88495  0.59855  0.24650  1.0000
  C   C121      1.0  0.45033  0.89822  0.06980  1.0000
  C   C122      1.0  0.95033  0.89822  0.06979  1.0000
  C   C123      1.0  0.41434  0.94404  0.12807  1.0000
  C   C124      1.0  0.91435  0.94404  0.12807  1.0000
  C   C125      1.0  0.36849  0.91143  0.18900  1.0000
  C   C126      1.0  0.86849  0.91144  0.18899  1.0000
  C   C127      1.0  0.36227  0.83279  0.18840  1.0000
  C   C128      1.0  0.86228  0.83279  0.18848  1.0000
  C   C129      1.0  0.39904  0.79124  0.12716  1.0000
  C   C130      1.0  0.89904  0.79124  0.12716  1.0000
  C   C131      1.0  0.32395  0.95644  0.25070  1.0000
  C   C132      1.0  0.82394  0.95644  0.25071  1.0000
  C   C133      1.0  0.24001  0.95838  0.23317  1.0000
  C   C134      1.0  0.74001  0.95838  0.23317  1.0000
  C   C135      1.0  0.18770  0.90568  0.27518  1.0000
  C   C136      1.0  0.68770  0.90568  0.27518  1.0000
  C   C137      1.0  0.20639  0.86301  0.34678  1.0000
  C   C138      1.0  0.70639  0.86300  0.34678  1.0000
  C   C139      1.0  0.15297  0.81994  0.38637  1.0000
  C   C140      1.0  0.65297  0.81994  0.38637  1.0000
  C   C141      1.0  0.06446  0.85880  0.29152  1.0000
  C   C142      1.0  0.56446  0.85880  0.29152  1.0000
  C   C143      1.0  0.11506  0.90148  0.24654  1.0000
  C   C144      1.0  0.61506  0.90148  0.24654  1.0000
  C   C145      1.0  0.04966  0.39821  0.43018  1.0000
  C   C146      1.0  0.54967  0.39820  0.43019  1.0000
  C   C147      1.0  0.08567  0.44403  0.37192  1.0000
  C   C148      1.0  0.58566  0.44403  0.37190  1.0000
  C   C149      1.0  0.13151  0.41142  0.31098  1.0000
  C   C150      1.0  0.63151  0.41142  0.31099  1.0000
  C   C151      1.0  0.13774  0.33278  0.31152  1.0000
  C   C152      1.0  0.63773  0.33278  0.31150  1.0000
  C   C153      1.0  0.10095  0.29123  0.37283  1.0000
  C   C154      1.0  0.60096  0.29123  0.37283  1.0000
  C   C155      1.0  0.17605  0.45645  0.24928  1.0000
  C   C156      1.0  0.67606  0.45643  0.24928  1.0000
  C   C157      1.0  0.25999  0.45836  0.26681  1.0000
  C   C158      1.0  0.76000  0.45836  0.26681  1.0000
  C   C159      1.0  0.31231  0.40566  0.22481  1.0000
  C   C160      1.0  0.81231  0.40567  0.22480  1.0000
  C   C161      1.0  0.29361  0.36300  0.15320  1.0000
  C   C162      1.0  0.79361  0.36299  0.15321  1.0000
  C   C163      1.0  0.34702  0.31992  0.11362  1.0000
  C   C164      1.0  0.84703  0.31993  0.11361  1.0000
  C   C165      1.0  0.43554  0.35878  0.20847  1.0000
  C   C166      1.0  0.93554  0.35879  0.20847  1.0000
  C   C167      1.0  0.38495  0.40148  0.25344  1.0000
  C   C168      1.0  0.88494  0.40147  0.25345  1.0000
  C   C169      1.0  0.45033  0.10181  0.43019  1.0000
  C   C170      1.0  0.95034  0.10181  0.43018  1.0000
  C   C171      1.0  0.41434  0.05598  0.37192  1.0000
  C   C172      1.0  0.91434  0.05598  0.37192  1.0000
  C   C173      1.0  0.36849  0.08859  0.31099  1.0000
  C   C174      1.0  0.86850  0.08860  0.31098  1.0000
  C   C175      1.0  0.36227  0.16723  0.31151  1.0000
  C   C176      1.0  0.86227  0.16724  0.31150  1.0000
  C   C177      1.0  0.39904  0.20879  0.37283  1.0000
  C   C178      1.0  0.89905  0.20879  0.37283  1.0000
  C   C179      1.0  0.32395  0.04358  0.24928  1.0000
  C   C180      1.0  0.82396  0.04357  0.24928  1.0000
  C   C181      1.0  0.24001  0.04165  0.26681  1.0000
  C   C182      1.0  0.74001  0.04165  0.26681  1.0000
  C   C183      1.0  0.18770  0.09435  0.22481  1.0000
  C   C184      1.0  0.68770  0.09435  0.22481  1.0000
  C   C185      1.0  0.20639  0.13701  0.15320  1.0000
  C   C186      1.0  0.70639  0.13701  0.15320  1.0000
  C   C187      1.0  0.15297  0.18009  0.11360  1.0000
  C   C188      1.0  0.65298  0.18009  0.11362  1.0000
  C   C189      1.0  0.06446  0.14123  0.20847  1.0000
  C   C190      1.0  0.56446  0.14123  0.20847  1.0000
  C   C191      1.0  0.11506  0.09854  0.25344  1.0000
  C   C192      1.0  0.61506  0.09854  0.25344  1.0000
  N   N1        1.0  0.44261  0.32307  0.93181  1.0000
  N   N2        1.0  0.94261  0.32307  0.93181  1.0000
  N   N3        1.0  0.08274  0.31843  0.63928  1.0000
  N   N4        1.0  0.58274  0.31843  0.63920  1.0000
  N   N5        1.0  0.05739  0.17694  0.93181  1.0000
  N   N6        1.0  0.55739  0.17694  0.93181  1.0000
  N   N7        1.0  0.41726  0.18159  0.63928  1.0000
  N   N8        1.0  0.91726  0.18159  0.63928  1.0000
  N   N9        1.0  0.44261  0.67696  0.56810  1.0000
  N   N10       1.0  0.94261  0.67696  0.56817  1.0000
  N   N11       1.0  0.08274  0.68160  0.86069  1.0000
  N   N12       1.0  0.58274  0.68160  0.86069  1.0000
  N   N13       1.0  0.05739  0.82308  0.56816  1.0000
  N   N14       1.0  0.55739  0.82308  0.56816  1.0000
  N   N15       1.0  0.41726  0.81844  0.86069  1.0000
  N   N16       1.0  0.91726  0.81844  0.86069  1.0000
  N   N17       1.0  0.05739  0.67696  0.06817  1.0000
  N   N18       1.0  0.55739  0.67696  0.06817  1.0000
  N   N19       1.0  0.41726  0.68160  0.36000  1.0000
  N   N20       1.0  0.91726  0.68160  0.36070  1.0000
  N   N21       1.0  0.44261  0.82308  0.06817  1.0000
  N   N22       1.0  0.94261  0.82308  0.06817  1.0000
  N   N23       1.0  0.08274  0.81844  0.36070  1.0000
  N   N24       1.0  0.58274  0.81844  0.36070  1.0000
  N   N25       1.0  0.05739  0.32307  0.43182  1.0000
  N   N26       1.0  0.55739  0.32307  0.43181  1.0000
  N   N27       1.0  0.41726  0.31843  0.13928  1.0000
  N   N28       1.0  0.91726  0.31842  0.13929  1.0000
  N   N29       1.0  0.44261  0.17694  0.43182  1.0000
  N   N30       1.0  0.94261  0.17694  0.43182  1.0000
  N   N31       1.0  0.08274  0.18159  0.13928  1.0000
  N   N32       1.0  0.58274  0.18159  0.13928  1.0000
  Cl  Cl1       1.0  0.10019  0.35622  0.05351  1.0000
  Cl  Cl2       1.0  0.60020  0.35622  0.05351  1.0000
  Cl  Cl3       1.0  0.39981  0.14379  0.05351  1.0000
  Cl  Cl4       1.0  0.89981  0.14379  0.05351  1.0000
  Cl  Cl5       1.0  0.10019  0.64381  0.44648  1.0000
  Cl  Cl6       1.0  0.60020  0.64381  0.44648  1.0000
  Cl  Cl7       1.0  0.39981  0.85623  0.44648  1.0000
  Cl  Cl8       1.0  0.89981  0.85623  0.44640  1.0000
  Cl  Cl9       1.0  0.39981  0.64381  0.94647  1.0000
  Cl  Cl10      1.0  0.89981  0.64381  0.94647  1.0000
  Cl  Cl11      1.0  0.10019  0.85623  0.94647  1.0000
  Cl  Cl12      1.0  0.60019  0.85623  0.94647  1.0000
  Cl  Cl13      1.0  0.39981  0.35622  0.55350  1.0000
  Cl  Cl14      1.0  0.89981  0.35622  0.55350  1.0000
  Cl  Cl15      1.0  0.10019  0.14379  0.55350  1.0000
  Cl  Cl16      1.0  0.60019  0.14379  0.55350  1.0000
