data_image0
_chemical_formula_structural       Zn8H96C120N16O32
_chemical_formula_sum              "Zn8 H96 C120 N16 O32"
_cell_length_a       12.365
_cell_length_b       20.163
_cell_length_c       20.18
_cell_angle_alpha    102.302
_cell_angle_beta     94.912
_cell_angle_gamma    94.696

_space_group_name_H-M_alt    "P 1"
_space_group_IT_number       1

loop_
  _space_group_symop_operation_xyz
  'x, y, z'

loop_
  _atom_site_type_symbol
  _atom_site_label
  _atom_site_symmetry_multiplicity
  _atom_site_fract_x
  _atom_site_fract_y
  _atom_site_fract_z
  _atom_site_occupancy
  Zn  Zn1       1.0  0.61578  0.07295  0.55951  1.0000
  Zn  Zn2       1.0  0.80517  0.01648  0.52665  1.0000
  Zn  Zn3       1.0  0.41201  0.33328  0.60583  1.0000
  Zn  Zn4       1.0  0.50489  0.48363  0.75530  1.0000
  Zn  Zn5       1.0  0.11599  0.56046  0.07286  1.0000
  Zn  Zn6       1.0  0.30521  0.52594  0.01643  1.0000
  Zn  Zn7       1.0  0.91217  0.60581  0.33317  1.0000
  Zn  Zn8       1.0  0.00503  0.75533  0.48350  1.0000
  H   H1        1.0  0.49825  0.19955  0.53473  1.0000
  H   H2        1.0  0.56519  0.21851  0.61940  1.0000
  H   H3        1.0  0.53804  0.13972  0.69346  1.0000
  H   H4        1.0  0.45261  0.06168  0.66272  1.0000
  H   H5        1.0  0.36257  0.03485  0.54802  1.0000
  H   H6        1.0  0.38283  0.09268  0.49310  1.0000
  H   H7        1.0  0.31449  0.24745  0.70115  1.0000
  H   H8        1.0  0.45866  0.24606  0.71573  1.0000
  H   H9        1.0  0.19923  0.14142  0.65926  1.0000
  H   H10       1.0  0.25849  0.06241  0.64193  1.0000
  H   H11       1.0  0.30369  0.20015  0.51526  1.0000
  H   H12       1.0  0.22441  0.22018  0.58590  1.0000
  H   H13       1.0  0.85883  0.87194  0.46533  1.0000
  H   H14       1.0  0.91418  0.88852  0.55247  1.0000
  H   H15       1.0  0.98458  0.03067  0.43247  1.0000
  H   H16       1.0  0.90035  0.95334  0.39585  1.0000
  H   H17       1.0  0.02812  0.99435  0.60216  1.0000
  H   H18       1.0  0.05938  0.05403  0.55079  1.0000
  H   H19       1.0  0.97939  0.84646  0.37561  1.0000
  H   H20       1.0  0.12184  0.84447  0.39777  1.0000
  H   H21       1.0  0.17639  0.02837  0.46334  1.0000
  H   H22       1.0  0.23475  0.94870  0.44792  1.0000
  H   H23       1.0  0.19561  0.86807  0.51663  1.0000
  H   H24       1.0  0.10603  0.88636  0.58000  1.0000
  H   H25       1.0  0.66820  0.84913  0.35131  1.0000
  H   H26       1.0  0.26866  0.86490  0.30965  1.0000
  H   H27       1.0  0.38595  0.95253  0.39836  1.0000
  H   H28       1.0  0.65163  0.74485  0.25814  1.0000
  H   H29       1.0  0.53489  0.65751  0.16780  1.0000
  H   H30       1.0  0.25062  0.75665  0.21955  1.0000
  H   H31       1.0  0.92763  0.14974  0.39946  1.0000
  H   H32       1.0  0.98361  0.24686  0.34721  1.0000
  H   H33       1.0  0.64785  0.24712  0.46788  1.0000
  H   H34       1.0  0.95149  0.36122  0.32410  1.0000
  H   H35       1.0  0.68320  0.46300  0.40475  1.0000
  H   H36       1.0  0.62017  0.36173  0.44952  1.0000
  H   H37       1.0  0.12441  0.33742  0.62359  1.0000
  H   H38       1.0  0.98289  0.51010  0.80226  1.0000
  H   H39       1.0  0.18162  0.50683  0.79705  1.0000
  H   H40       1.0  0.93357  0.29381  0.57351  1.0000
  H   H41       1.0  0.73484  0.29722  0.57840  1.0000
  H   H42       1.0  0.79184  0.46102  0.75703  1.0000
  H   H43       1.0  0.77509  0.84236  0.62081  1.0000
  H   H44       1.0  0.42956  0.83952  0.73168  1.0000
  H   H45       1.0  0.48787  0.93665  0.68015  1.0000
  H   H46       1.0  0.80085  0.72741  0.63896  1.0000
  H   H47       1.0  0.73545  0.62588  0.68276  1.0000
  H   H48       1.0  0.46181  0.72628  0.75677  1.0000
  H   H49       1.0  0.99907  0.53487  0.19934  1.0000
  H   H50       1.0  0.06546  0.61966  0.21862  1.0000
  H   H51       1.0  0.03737  0.69402  0.14009  1.0000
  H   H52       1.0  0.95190  0.66337  0.06196  1.0000
  H   H53       1.0  0.86266  0.54848  0.03478  1.0000
  H   H54       1.0  0.88365  0.49339  0.09243  1.0000
  H   H55       1.0  0.81406  0.70112  0.24743  1.0000
  H   H56       1.0  0.95815  0.71589  0.24623  1.0000
  H   H57       1.0  0.69873  0.65933  0.14130  1.0000
  H   H58       1.0  0.75787  0.64226  0.06242  1.0000
  H   H59       1.0  0.80464  0.51517  0.19975  1.0000
  H   H60       1.0  0.72481  0.58571  0.21982  1.0000
  H   H61       1.0  0.35878  0.46514  0.87171  1.0000
  H   H62       1.0  0.41349  0.55239  0.88856  1.0000
  H   H63       1.0  0.48534  0.43205  0.03041  1.0000
  H   H64       1.0  0.40117  0.39544  0.95294  1.0000
  H   H65       1.0  0.52731  0.60200  0.99449  1.0000
  H   H66       1.0  0.55921  0.55050  0.05406  1.0000
  H   H67       1.0  0.48005  0.37555  0.84628  1.0000
  H   H68       1.0  0.62233  0.39788  0.84449  1.0000
  H   H69       1.0  0.67690  0.46320  0.02842  1.0000
  H   H70       1.0  0.73519  0.44802  0.94886  1.0000
  H   H71       1.0  0.69523  0.51689  0.86841  1.0000
  H   H72       1.0  0.60513  0.58216  0.88666  1.0000
  H   H73       1.0  0.16794  0.35136  0.84908  1.0000
  H   H74       1.0  0.76872  0.30992  0.86487  1.0000
  H   H75       1.0  0.88600  0.39888  0.95223  1.0000
  H   H76       1.0  0.15128  0.25802  0.74500  1.0000
  H   H77       1.0  0.03456  0.16769  0.65777  1.0000
  H   H78       1.0  0.75050  0.21959  0.75673  1.0000
  H   H79       1.0  0.42856  0.39911  0.15032  1.0000
  H   H80       1.0  0.48410  0.34693  0.24772  1.0000
  H   H81       1.0  0.14766  0.46763  0.24607  1.0000
  H   H82       1.0  0.45144  0.32410  0.36170  1.0000
  H   H83       1.0  0.18225  0.40484  0.46221  1.0000
  H   H84       1.0  0.11940  0.44942  0.36064  1.0000
  H   H85       1.0  0.62460  0.62338  0.33734  1.0000
  H   H86       1.0  0.48302  0.80236  0.50969  1.0000
  H   H87       1.0  0.68175  0.79721  0.50630  1.0000
  H   H88       1.0  0.43377  0.57316  0.29380  1.0000
  H   H89       1.0  0.23505  0.57801  0.29739  1.0000
  H   H90       1.0  0.29200  0.75701  0.46075  1.0000
  H   H91       1.0  0.27525  0.62107  0.84291  1.0000
  H   H92       1.0  0.92953  0.73248  0.83905  1.0000
  H   H93       1.0  0.98795  0.68110  0.93642  1.0000
  H   H94       1.0  0.30128  0.63915  0.72818  1.0000
  H   H95       1.0  0.23583  0.68280  0.62600  1.0000
  H   H96       1.0  0.96182  0.75728  0.72588  1.0000
  C   C1        1.0  0.49048  0.19448  0.58715  1.0000
  C   C2        1.0  0.46266  0.11596  0.66168  1.0000
  C   C3        1.0  0.37332  0.08886  0.54580  1.0000
  C   C4        1.0  0.38423  0.22111  0.68338  1.0000
  C   C5        1.0  0.27021  0.11673  0.64085  1.0000
  C   C6        1.0  0.29441  0.19431  0.56742  1.0000
  C   C7        1.0  0.93004  0.89490  0.50149  1.0000
  C   C8        1.0  0.97210  0.97608  0.43181  1.0000
  C   C9        1.0  0.04581  0.99965  0.55104  1.0000
  C   C10       1.0  0.05006  0.87050  0.41200  1.0000
  C   C11       1.0  0.16206  0.97375  0.46250  1.0000
  C   C12       1.0  0.12361  0.89377  0.53150  1.0000
  C   C13       1.0  0.60090  0.95697  0.43692  1.0000
  C   C14       1.0  0.53402  0.90532  0.38049  1.0000
  C   C15       1.0  0.58098  0.85242  0.34152  1.0000
  C   C16       1.0  0.51757  0.80228  0.28990  1.0000
  C   C17       1.0  0.40208  0.80592  0.27863  1.0000
  C   C18       1.0  0.35602  0.86114  0.31886  1.0000
  C   C19       1.0  0.42025  0.90957  0.36801  1.0000
  C   C20       1.0  0.56414  0.74786  0.24889  1.0000
  C   C21       1.0  0.50039  0.69965  0.19940  1.0000
  C   C22       1.0  0.38603  0.70247  0.18851  1.0000
  C   C23       1.0  0.33849  0.75480  0.22795  1.0000
  C   C24       1.0  0.31870  0.64804  0.13494  1.0000
  C   C25       1.0  0.75490  0.13607  0.47162  1.0000
  C   C26       1.0  0.78461  0.19306  0.43750  1.0000
  C   C27       1.0  0.87980  0.19310  0.40200  1.0000
  C   C28       1.0  0.91044  0.24682  0.37380  1.0000
  C   C29       1.0  0.84857  0.30381  0.37904  1.0000
  C   C30       1.0  0.75238  0.30402  0.41430  1.0000
  C   C31       1.0  0.72166  0.24735  0.44203  1.0000
  C   C32       1.0  0.87941  0.36075  0.35171  1.0000
  C   C33       1.0  0.82081  0.41713  0.36108  1.0000
  C   C34       1.0  0.72681  0.41764  0.39711  1.0000
  C   C35       1.0  0.69246  0.36195  0.42200  1.0000
  C   C36       1.0  0.86048  0.47838  0.33583  1.0000
  C   C37       1.0  0.28397  0.41736  0.70947  1.0000
  C   C38       1.0  0.16424  0.42042  0.71061  1.0000
  C   C39       1.0  0.09242  0.37455  0.66263  1.0000
  C   C40       1.0  0.97841  0.37607  0.66299  1.0000
  C   C41       1.0  0.93787  0.42497  0.71538  1.0000
  C   C42       1.0  0.01352  0.47219  0.76318  1.0000
  C   C43       1.0  0.12398  0.47053  0.76053  1.0000
  C   C44       1.0  0.90289  0.33038  0.61376  1.0000
  C   C45       1.0  0.79244  0.33204  0.61633  1.0000
  C   C46       1.0  0.75209  0.37891  0.66916  1.0000
  C   C47       1.0  0.82387  0.42439  0.71758  1.0000
  C   C48       1.0  0.63231  0.38001  0.67179  1.0000
  C   C49       1.0  0.66639  0.95282  0.61416  1.0000
  C   C50       1.0  0.63523  0.89522  0.64709  1.0000
  C   C51       1.0  0.69915  0.84154  0.64445  1.0000
  C   C52       1.0  0.66636  0.78439  0.67103  1.0000
  C   C53       1.0  0.56771  0.78389  0.70381  1.0000
  C   C54       1.0  0.50472  0.84021  0.70704  1.0000
  C   C55       1.0  0.53684  0.89400  0.67876  1.0000
  C   C56       1.0  0.72684  0.72674  0.66472  1.0000
  C   C57       1.0  0.69114  0.67094  0.68917  1.0000
  C   C58       1.0  0.59501  0.67102  0.72319  1.0000
  C   C59       1.0  0.53552  0.72698  0.73000  1.0000
  C   C60       1.0  0.55438  0.61007  0.74861  1.0000
  C   C61       1.0  0.99088  0.58736  0.19445  1.0000
  C   C62       1.0  0.96213  0.66217  0.11618  1.0000
  C   C63       1.0  0.87365  0.54613  0.08870  1.0000
  C   C64       1.0  0.88387  0.68348  0.22116  1.0000
  C   C65       1.0  0.76981  0.64105  0.11668  1.0000
  C   C66       1.0  0.79491  0.56738  0.19402  1.0000
  C   C67       1.0  0.42979  0.50136  0.89482  1.0000
  C   C68       1.0  0.47271  0.43147  0.97583  1.0000
  C   C69       1.0  0.54546  0.55086  0.99973  1.0000
  C   C70       1.0  0.55051  0.41206  0.87043  1.0000
  C   C71       1.0  0.66242  0.46248  0.97381  1.0000
  C   C72       1.0  0.62314  0.53163  0.89400  1.0000
  C   C73       1.0  0.10089  0.43735  0.95661  1.0000
  C   C74       1.0  0.03393  0.38082  0.90510  1.0000
  C   C75       1.0  0.08079  0.34165  0.85235  1.0000
  C   C76       1.0  0.01736  0.28995  0.80231  1.0000
  C   C77       1.0  0.90192  0.27873  0.80593  1.0000
  C   C78       1.0  0.85599  0.31910  0.86107  1.0000
  C   C79       1.0  0.92022  0.36840  0.90936  1.0000
  C   C80       1.0  0.06385  0.24883  0.74798  1.0000
  C   C81       1.0  0.00000  0.19932  0.69980  1.0000
  C   C82       1.0  0.88577  0.18844  0.70262  1.0000
  C   C83       1.0  0.83831  0.22796  0.75488  1.0000
  C   C84       1.0  0.81850  0.13481  0.64819  1.0000
  C   C85       1.0  0.25579  0.47116  0.13557  1.0000
  C   C86       1.0  0.28501  0.43721  0.19281  1.0000
  C   C87       1.0  0.38040  0.40237  0.19340  1.0000
  C   C88       1.0  0.41080  0.37360  0.24726  1.0000
  C   C89       1.0  0.34850  0.37888  0.30380  1.0000
  C   C90       1.0  0.25213  0.41416  0.30350  1.0000
  C   C91       1.0  0.22161  0.44178  0.24673  1.0000
  C   C92       1.0  0.37923  0.35165  0.36095  1.0000
  C   C93       1.0  0.32035  0.36110  0.41703  1.0000
  C   C94       1.0  0.22614  0.39714  0.41708  1.0000
  C   C95       1.0  0.19188  0.42202  0.36123  1.0000
  C   C96       1.0  0.36017  0.33590  0.47837  1.0000
  C   C97       1.0  0.78408  0.70951  0.41712  1.0000
  C   C98       1.0  0.66436  0.71058  0.42017  1.0000
  C   C99       1.0  0.59259  0.66248  0.37438  1.0000
  C   C100      1.0  0.47860  0.66282  0.37594  1.0000
  C   C101      1.0  0.43804  0.71531  0.42474  1.0000
  C   C102      1.0  0.51364  0.76322  0.47186  1.0000
  C   C103      1.0  0.62410  0.76060  0.47017  1.0000
  C   C104      1.0  0.40309  0.61348  0.33037  1.0000
  C   C105      1.0  0.29263  0.61603  0.33208  1.0000
  C   C106      1.0  0.25225  0.66897  0.37883  1.0000
  C   C107      1.0  0.32403  0.71749  0.42419  1.0000
  C   C108      1.0  0.13247  0.67162  0.37999  1.0000
  C   C109      1.0  0.16646  0.61475  0.95304  1.0000
  C   C110      1.0  0.13537  0.64770  0.89538  1.0000
  C   C111      1.0  0.19931  0.64485  0.84188  1.0000
  C   C112      1.0  0.16657  0.67143  0.78466  1.0000
  C   C113      1.0  0.06784  0.70434  0.78386  1.0000
  C   C114      1.0  0.00480  0.70776  0.83999  1.0000
  C   C115      1.0  0.03695  0.67955  0.89300  1.0000
  C   C116      1.0  0.22718  0.66496  0.72723  1.0000
  C   C117      1.0  0.19144  0.68932  0.67131  1.0000
  C   C118      1.0  0.09520  0.72342  0.67107  1.0000
  C   C119      1.0  0.03562  0.73121  0.72683  1.0000
  C   C120      1.0  0.05445  0.74876  0.61002  1.0000
  N   N1        1.0  0.47632  0.12101  0.58938  1.0000
  N   N2        1.0  0.39544  0.22970  0.61194  1.0000
  N   N3        1.0  0.36873  0.14933  0.68604  1.0000
  N   N4        1.0  0.27836  0.12223  0.56946  1.0000
  N   N5        1.0  0.94741  0.96895  0.50185  1.0000
  N   N6        1.0  0.02755  0.85983  0.48137  1.0000
  N   N7        1.0  0.06865  0.94281  0.41202  1.0000
  N   N8        1.0  0.14294  0.96630  0.53203  1.0000
  N   N9        1.0  0.97645  0.58981  0.12105  1.0000
  N   N10       1.0  0.89572  0.61197  0.22958  1.0000
  N   N11       1.0  0.86808  0.68633  0.14946  1.0000
  N   N12       1.0  0.77860  0.56960  0.12202  1.0000
  N   N13       1.0  0.44741  0.50156  0.96880  1.0000
  N   N14       1.0  0.52737  0.48141  0.85987  1.0000
  N   N15       1.0  0.56932  0.41187  0.94268  1.0000
  N   N16       1.0  0.64269  0.53202  0.96648  1.0000
  O   O1        1.0  0.55064  0.00379  0.47020  1.0000
  O   O2        1.0  0.70197  0.94992  0.44822  1.0000
  O   O3        1.0  0.37103  0.60811  0.09450  1.0000
  O   O4        1.0  0.21522  0.64494  0.13393  1.0000
  O   O5        1.0  0.67158  0.14079  0.50496  1.0000
  O   O6        1.0  0.81584  0.08747  0.46648  1.0000
  O   O7        1.0  0.92643  0.47496  0.29157  1.0000
  O   O8        1.0  0.82389  0.53565  0.36390  1.0000
  O   O9        1.0  0.59599  0.99512  0.60972  1.0000
  O   O10       1.0  0.34518  0.47203  0.73776  1.0000
  O   O11       1.0  0.31835  0.36083  0.68254  1.0000
  O   O12       1.0  0.57142  0.35287  0.61657  1.0000
  O   O13       1.0  0.59723  0.40602  0.72826  1.0000
  O   O14       1.0  0.75940  0.95531  0.59141  1.0000
  O   O15       1.0  0.59257  0.55280  0.72240  1.0000
  O   O16       1.0  0.48627  0.61385  0.79166  1.0000
  O   O17       1.0  0.05052  0.47177  0.00266  1.0000
  O   O18       1.0  0.20232  0.44762  0.95018  1.0000
  O   O19       1.0  0.87115  0.09465  0.60813  1.0000
  O   O20       1.0  0.71502  0.13341  0.64512  1.0000
  O   O21       1.0  0.17136  0.50368  0.13907  1.0000
  O   O22       1.0  0.31837  0.46668  0.08798  1.0000
  O   O23       1.0  0.42625  0.29156  0.47505  1.0000
  O   O24       1.0  0.32359  0.36405  0.53552  1.0000
  O   O25       1.0  0.09651  0.61131  0.99561  1.0000
  O   O26       1.0  0.84539  0.73781  0.47100  1.0000
  O   O27       1.0  0.81837  0.68263  0.36063  1.0000
  O   O28       1.0  0.07172  0.61639  0.35284  1.0000
  O   O29       1.0  0.09726  0.72813  0.40602  1.0000
  O   O30       1.0  0.25891  0.59105  0.95531  1.0000
  O   O31       1.0  0.09268  0.72241  0.55291  1.0000
  O   O32       1.0  0.98624  0.79191  0.61366  1.0000
