data_image0
_chemical_formula_structural       Zn8H96C120N16O32
_chemical_formula_sum              "Zn8 H96 C120 N16 O32"
_cell_length_a       12.396
_cell_length_b       20.153
_cell_length_c       20.225
_cell_angle_alpha    102.717
_cell_angle_beta     94.698
_cell_angle_gamma    94.474

_space_group_name_H-M_alt    "P 1"
_space_group_IT_number       1

loop_
  _space_group_symop_operation_xyz
  'x, y, z'

loop_
  _atom_site_type_symbol
  _atom_site_label
  _atom_site_symmetry_multiplicity
  _atom_site_fract_x
  _atom_site_fract_y
  _atom_site_fract_z
  _atom_site_occupancy
  Zn  Zn1       1.0  0.80551  0.60889  0.11389  1.0000
  Zn  Zn2       1.0  0.61626  0.66407  0.15020  1.0000
  Zn  Zn3       1.0  0.91674  0.20002  0.92677  1.0000
  Zn  Zn4       1.0  0.00878  0.34957  0.08580  1.0000
  Zn  Zn5       1.0  0.30555  0.11405  0.60870  1.0000
  Zn  Zn6       1.0  0.11612  0.15052  0.66300  1.0000
  Zn  Zn7       1.0  0.41679  0.92793  0.19818  1.0000
  Zn  Zn8       1.0  0.50880  0.08533  0.34984  1.0000
  H   H1        1.0  0.52149  0.72722  0.28106  1.0000
  H   H2        1.0  0.43767  0.65008  0.24318  1.0000
  H   H3        1.0  0.30122  0.83718  0.28138  1.0000
  H   H4        1.0  0.44299  0.83432  0.30326  1.0000
  H   H5        1.0  0.31839  0.79733  0.09733  1.0000
  H   H6        1.0  0.22845  0.81511  0.16260  1.0000
  H   H7        1.0  0.18862  0.73331  0.22936  1.0000
  H   H8        1.0  0.24662  0.65326  0.21241  1.0000
  H   H9        1.0  0.36394  0.62832  0.12507  1.0000
  H   H10       1.0  0.39578  0.68882  0.07500  1.0000
  H   H11       1.0  0.50931  0.79440  0.12659  1.0000
  H   H12       1.0  0.56384  0.80985  0.21351  1.0000
  H   H13       1.0  0.03868  0.59706  0.18245  1.0000
  H   H14       1.0  0.05827  0.64824  0.12183  1.0000
  H   H15       1.0  0.85892  0.46216  0.06520  1.0000
  H   H16       1.0  0.92483  0.48984  0.14949  1.0000
  H   H17       1.0  0.96800  0.61096  0.00727  1.0000
  H   H18       1.0  0.88431  0.53175  0.98300  1.0000
  H   H19       1.0  0.19890  0.46294  0.10063  1.0000
  H   H20       1.0  0.12130  0.48995  0.17000  1.0000
  H   H21       1.0  0.16224  0.61208  0.02911  1.0000
  H   H22       1.0  0.22239  0.53315  0.01892  1.0000
  H   H23       1.0  0.96571  0.42572  0.97028  1.0000
  H   H24       1.0  0.10973  0.42600  0.98589  1.0000
  H   H25       1.0  0.65141  0.84148  0.06101  1.0000
  H   H26       1.0  0.62565  0.95698  0.04429  1.0000
  H   H27       1.0  0.69042  0.05853  0.00096  1.0000
  H   H28       1.0  0.96040  0.95628  0.92257  1.0000
  H   H29       1.0  0.99063  0.84151  0.94394  1.0000
  H   H30       1.0  0.93133  0.74313  0.99294  1.0000
  H   H31       1.0  0.79910  0.44688  0.21550  1.0000
  H   H32       1.0  0.44081  0.40662  0.30253  1.0000
  H   H33       1.0  0.48304  0.50932  0.25646  1.0000
  H   H34       1.0  0.85250  0.33735  0.23783  1.0000
  H   H35       1.0  0.81315  0.23617  0.28751  1.0000
  H   H36       1.0  0.49745  0.29866  0.32976  1.0000
  H   H37       1.0  0.75125  0.82688  0.33122  1.0000
  H   H38       1.0  0.76778  0.92861  0.42851  1.0000
  H   H39       1.0  0.17086  0.92579  0.45235  1.0000
  H   H40       1.0  0.15373  0.82079  0.35826  1.0000
  H   H41       1.0  0.03638  0.73376  0.26897  1.0000
  H   H42       1.0  0.88520  0.01532  0.51881  1.0000
  H   H43       1.0  0.68595  0.38412  0.10549  1.0000
  H   H44       1.0  0.48779  0.38542  0.11322  1.0000
  H   H45       1.0  0.29807  0.34030  0.06595  1.0000
  H   H46       1.0  0.62899  0.22622  0.92133  1.0000
  H   H47       1.0  0.43819  0.17779  0.87601  1.0000
  H   H48       1.0  0.24033  0.17896  0.88410  1.0000
  H   H49       1.0  0.02104  0.28207  0.72607  1.0000
  H   H50       1.0  0.93718  0.24388  0.64915  1.0000
  H   H51       1.0  0.80096  0.28310  0.83539  1.0000
  H   H52       1.0  0.94268  0.30486  0.83267  1.0000
  H   H53       1.0  0.81857  0.09842  0.79645  1.0000
  H   H54       1.0  0.72849  0.16407  0.81373  1.0000
  H   H55       1.0  0.68832  0.23064  0.73172  1.0000
  H   H56       1.0  0.74634  0.21325  0.65211  1.0000
  H   H57       1.0  0.86377  0.12546  0.62780  1.0000
  H   H58       1.0  0.89589  0.07556  0.68842  1.0000
  H   H59       1.0  0.00941  0.12750  0.79371  1.0000
  H   H60       1.0  0.06373  0.21463  0.80886  1.0000
  H   H61       1.0  0.53837  0.18276  0.59667  1.0000
  H   H62       1.0  0.55838  0.12207  0.64786  1.0000
  H   H63       1.0  0.35858  0.06515  0.46219  1.0000
  H   H64       1.0  0.42433  0.14962  0.48975  1.0000
  H   H65       1.0  0.46835  0.00715  0.61080  1.0000
  H   H66       1.0  0.38449  0.98278  0.53180  1.0000
  H   H67       1.0  0.69853  0.10028  0.46334  1.0000
  H   H68       1.0  0.62076  0.16999  0.49002  1.0000
  H   H69       1.0  0.66245  0.02890  0.61214  1.0000
  H   H70       1.0  0.72251  0.01843  0.53358  1.0000
  H   H71       1.0  0.46556  0.96975  0.42624  1.0000
  H   H72       1.0  0.60955  0.98521  0.42658  1.0000
  H   H73       1.0  0.15116  0.06095  0.83955  1.0000
  H   H74       1.0  0.12489  0.04462  0.95450  1.0000
  H   H75       1.0  0.18986  0.00200  0.05649  1.0000
  H   H76       1.0  0.46109  0.92330  0.95615  1.0000
  H   H77       1.0  0.49159  0.94418  0.84164  1.0000
  H   H78       1.0  0.43214  0.99274  0.74300  1.0000
  H   H79       1.0  0.29914  0.21625  0.44793  1.0000
  H   H80       1.0  0.94041  0.30340  0.40635  1.0000
  H   H81       1.0  0.98268  0.25752  0.50904  1.0000
  H   H82       1.0  0.35262  0.23824  0.33877  1.0000
  H   H83       1.0  0.31295  0.28738  0.23741  1.0000
  H   H84       1.0  0.99698  0.33020  0.29871  1.0000
  H   H85       1.0  0.25100  0.33180  0.82656  1.0000
  H   H86       1.0  0.26761  0.42929  0.92816  1.0000
  H   H87       1.0  0.67059  0.45288  0.92551  1.0000
  H   H88       1.0  0.65329  0.35894  0.82056  1.0000
  H   H89       1.0  0.53592  0.26950  0.73364  1.0000
  H   H90       1.0  0.38514  0.51952  0.01493  1.0000
  H   H91       1.0  0.18563  0.10544  0.38502  1.0000
  H   H92       1.0  0.98741  0.11265  0.38690  1.0000
  H   H93       1.0  0.79769  0.06552  0.34144  1.0000
  H   H94       1.0  0.12903  0.92293  0.22484  1.0000
  H   H95       1.0  0.93833  0.87762  0.17642  1.0000
  H   H96       1.0  0.74039  0.88550  0.17788  1.0000
  C   C1        1.0  0.45020  0.70492  0.24490  1.0000
  C   C2        1.0  0.37271  0.81093  0.26657  1.0000
  C   C3        1.0  0.30032  0.78928  0.14739  1.0000
  C   C4        1.0  0.26112  0.70812  0.21434  1.0000
  C   C5        1.0  0.37764  0.68291  0.12581  1.0000
  C   C6        1.0  0.49307  0.78733  0.17715  1.0000
  C   C7        1.0  0.04827  0.59567  0.12868  1.0000
  C   C8        1.0  0.93319  0.48882  0.09575  1.0000
  C   C9        1.0  0.95914  0.55812  0.01329  1.0000
  C   C10       1.0  0.12896  0.49042  0.11641  1.0000
  C   C11       1.0  0.15134  0.55921  0.03516  1.0000
  C   C12       1.0  0.03942  0.45333  0.00000  1.0000
  C   C13       1.0  0.75641  0.72814  0.06154  1.0000
  C   C14       1.0  0.78771  0.78660  0.03023  1.0000
  C   C15       1.0  0.72580  0.84160  0.03582  1.0000
  C   C16       1.0  0.75826  0.89891  0.00977  1.0000
  C   C17       1.0  0.69880  0.95725  0.01775  1.0000
  C   C18       1.0  0.73412  0.01306  0.99357  1.0000
  C   C19       1.0  0.88760  0.95590  0.94935  1.0000
  C   C20       1.0  0.91663  0.84129  0.96969  1.0000
  C   C21       1.0  0.88413  0.78690  0.99665  1.0000
  C   C22       1.0  0.82912  0.01247  0.95855  1.0000
  C   C23       1.0  0.86961  0.07336  0.93340  1.0000
  C   C24       1.0  0.85536  0.89870  0.97549  1.0000
  C   C25       1.0  0.66856  0.54453  0.20306  1.0000
  C   C26       1.0  0.64472  0.48448  0.23366  1.0000
  C   C27       1.0  0.72127  0.43808  0.23507  1.0000
  C   C28       1.0  0.70001  0.37897  0.26047  1.0000
  C   C29       1.0  0.59712  0.36763  0.28609  1.0000
  C   C30       1.0  0.51969  0.41588  0.28416  1.0000
  C   C31       1.0  0.54268  0.47275  0.25858  1.0000
  C   C32       1.0  0.77670  0.33007  0.26043  1.0000
  C   C33       1.0  0.75459  0.27369  0.28685  1.0000
  C   C34       1.0  0.57580  0.30815  0.31114  1.0000
  C   C35       1.0  0.65300  0.26217  0.31239  1.0000
  C   C36       1.0  0.63083  0.19904  0.33881  1.0000
  C   C37       1.0  0.82047  0.72446  0.23794  1.0000
  C   C38       1.0  0.88694  0.77579  0.29468  1.0000
  C   C39       1.0  0.83920  0.82580  0.33771  1.0000
  C   C40       1.0  0.90280  0.87590  0.38924  1.0000
  C   C41       1.0  0.85591  0.92767  0.43424  1.0000
  C   C42       1.0  0.08262  0.92565  0.44722  1.0000
  C   C43       1.0  0.01890  0.87486  0.39644  1.0000
  C   C44       1.0  0.06573  0.82245  0.35216  1.0000
  C   C45       1.0  0.00153  0.77435  0.30289  1.0000
  C   C46       1.0  0.03469  0.97511  0.49081  1.0000
  C   C47       1.0  0.10200  0.02880  0.54493  1.0000
  C   C48       1.0  0.91991  0.97549  0.48386  1.0000
  C   C49       1.0  0.66883  0.30554  0.01196  1.0000
  C   C50       1.0  0.78856  0.30491  0.00922  1.0000
  C   C51       1.0  0.62850  0.35035  0.06687  1.0000
  C   C52       1.0  0.51852  0.35091  0.07104  1.0000
  C   C53       1.0  0.32971  0.30620  0.02300  1.0000
  C   C54       1.0  0.13875  0.26353  0.97877  1.0000
  C   C55       1.0  0.44322  0.30618  0.02105  1.0000
  C   C56       1.0  0.48354  0.25976  0.96600  1.0000
  C   C57       1.0  0.59719  0.26124  0.96257  1.0000
  C   C58       1.0  0.40789  0.21376  0.91728  1.0000
  C   C59       1.0  0.25791  0.26157  0.97482  1.0000
  C   C60       1.0  0.29781  0.21428  0.92161  1.0000
  C   C61       1.0  0.94983  0.24581  0.70387  1.0000
  C   C62       1.0  0.87246  0.26805  0.80940  1.0000
  C   C63       1.0  0.80038  0.14859  0.78818  1.0000
  C   C64       1.0  0.76086  0.21540  0.70684  1.0000
  C   C65       1.0  0.87758  0.12642  0.68229  1.0000
  C   C66       1.0  0.99305  0.17818  0.78643  1.0000
  C   C67       1.0  0.54817  0.12882  0.59542  1.0000
  C   C68       1.0  0.43285  0.09571  0.48881  1.0000
  C   C69       1.0  0.45930  0.01310  0.55811  1.0000
  C   C70       1.0  0.62859  0.11623  0.49060  1.0000
  C   C71       1.0  0.65144  0.03486  0.55939  1.0000
  C   C72       1.0  0.53932  0.00000  0.45375  1.0000
  C   C73       1.0  0.25652  0.06129  0.72719  1.0000
  C   C74       1.0  0.28798  0.03005  0.78560  1.0000
  C   C75       1.0  0.22576  0.03578  0.84012  1.0000
  C   C76       1.0  0.25823  0.00997  0.89751  1.0000
  C   C77       1.0  0.19839  0.01820  0.95530  1.0000
  C   C78       1.0  0.23376  0.99442  0.01135  1.0000
  C   C79       1.0  0.38799  0.95000  0.95526  1.0000
  C   C80       1.0  0.41729  0.96984  0.84095  1.0000
  C   C81       1.0  0.38472  0.99656  0.78644  1.0000
  C   C82       1.0  0.32914  0.95949  0.01138  1.0000
  C   C83       1.0  0.36950  0.93487  0.07251  1.0000
  C   C84       1.0  0.35572  0.97583  0.89791  1.0000
  C   C85       1.0  0.16856  0.20391  0.54481  1.0000
  C   C86       1.0  0.14456  0.23454  0.48486  1.0000
  C   C87       1.0  0.22120  0.23584  0.43880  1.0000
  C   C88       1.0  0.19989  0.26109  0.37972  1.0000
  C   C89       1.0  0.09684  0.28671  0.36799  1.0000
  C   C90       1.0  0.01936  0.28500  0.41590  1.0000
  C   C91       1.0  0.04239  0.25952  0.47276  1.0000
  C   C92       1.0  0.27664  0.26081  0.33116  1.0000
  C   C93       1.0  0.25438  0.28697  0.27470  1.0000
  C   C94       1.0  0.07542  0.31154  0.30846  1.0000
  C   C95       1.0  0.15261  0.31251  0.26278  1.0000
  C   C96       1.0  0.13039  0.33864  0.19950  1.0000
  C   C97       1.0  0.32026  0.23825  0.72439  1.0000
  C   C98       1.0  0.38659  0.29520  0.77559  1.0000
  C   C99       1.0  0.33890  0.33832  0.82549  1.0000
  C   C100      1.0  0.40251  0.38990  0.87556  1.0000
  C   C101      1.0  0.35572  0.43494  0.92728  1.0000
  C   C102      1.0  0.58238  0.44780  0.92536  1.0000
  C   C103      1.0  0.51860  0.39708  0.87455  1.0000
  C   C104      1.0  0.56535  0.35280  0.82219  1.0000
  C   C105      1.0  0.50116  0.30346  0.77416  1.0000
  C   C106      1.0  0.53456  0.49138  0.97482  1.0000
  C   C107      1.0  0.60200  0.54541  0.02855  1.0000
  C   C108      1.0  0.41979  0.48452  0.97512  1.0000
  C   C109      1.0  0.16873  0.01273  0.30521  1.0000
  C   C110      1.0  0.28846  0.01014  0.30419  1.0000
  C   C111      1.0  0.12826  0.06703  0.35087  1.0000
  C   C112      1.0  0.01822  0.07092  0.35176  1.0000
  C   C113      1.0  0.82945  0.02387  0.30678  1.0000
  C   C114      1.0  0.63857  0.97915  0.26337  1.0000
  C   C115      1.0  0.94301  0.02125  0.30657  1.0000
  C   C116      1.0  0.98346  0.96686  0.25937  1.0000
  C   C117      1.0  0.09712  0.96368  0.26049  1.0000
  C   C118      1.0  0.90791  0.91845  0.21292  1.0000
  C   C119      1.0  0.75776  0.97525  0.26155  1.0000
  C   C120      1.0  0.79780  0.92262  0.21360  1.0000
  N   N1        1.0  0.47541  0.71294  0.17535  1.0000
  N   N2        1.0  0.35386  0.73832  0.26520  1.0000
  N   N3        1.0  0.28078  0.71644  0.14539  1.0000
  N   N4        1.0  0.39576  0.82255  0.19792  1.0000
  N   N5        1.0  0.94595  0.56023  0.08703  1.0000
  N   N6        1.0  0.02838  0.45187  0.07440  1.0000
  N   N7        1.0  0.14333  0.56063  0.10795  1.0000
  N   N8        1.0  0.05348  0.52312  0.99180  1.0000
  N   N9        1.0  0.97527  0.17609  0.71220  1.0000
  N   N10       1.0  0.85349  0.26641  0.73695  1.0000
  N   N11       1.0  0.78073  0.14630  0.71550  1.0000
  N   N12       1.0  0.89573  0.19925  0.82134  1.0000
  N   N13       1.0  0.44584  0.08707  0.56000  1.0000
  N   N14       1.0  0.52805  0.07412  0.45210  1.0000
  N   N15       1.0  0.64320  0.10788  0.56063  1.0000
  N   N16       1.0  0.55363  0.99149  0.52336  1.0000
  O   O1        1.0  0.81931  0.68031  0.05637  1.0000
  O   O2        1.0  0.67068  0.73037  0.09251  1.0000
  O   O3        1.0  0.82926  0.13050  0.95858  1.0000
  O   O4        1.0  0.93948  0.06962  0.89153  1.0000
  O   O5        1.0  0.75967  0.54895  0.17823  1.0000
  O   O6        1.0  0.59669  0.58644  0.20240  1.0000
  O   O7        1.0  0.70660  0.16987  0.36048  1.0000
  O   O8        1.0  0.52739  0.17733  0.33614  1.0000
  O   O9        1.0  0.87351  0.68443  0.19762  1.0000
  O   O10       1.0  0.71731  0.72500  0.23321  1.0000
  O   O11       1.0  0.05108  0.06398  0.59049  1.0000
  O   O12       1.0  0.20431  0.03588  0.54130  1.0000
  O   O13       1.0  0.10662  0.31632  0.01640  1.0000
  O   O14       1.0  0.07626  0.21291  0.94249  1.0000
  O   O15       1.0  0.84847  0.33319  0.06422  1.0000
  O   O16       1.0  0.82425  0.27792  0.95293  1.0000
  O   O17       1.0  0.31943  0.05610  0.67968  1.0000
  O   O18       1.0  0.17054  0.09231  0.72922  1.0000
  O   O19       1.0  0.32952  0.96095  0.12925  1.0000
  O   O20       1.0  0.43899  0.89240  0.06943  1.0000
  O   O21       1.0  0.26008  0.17933  0.54960  1.0000
  O   O22       1.0  0.09652  0.20289  0.58625  1.0000
  O   O23       1.0  0.20613  0.36006  0.17052  1.0000
  O   O24       1.0  0.02695  0.33602  0.17760  1.0000
  O   O25       1.0  0.37339  0.19777  0.68459  1.0000
  O   O26       1.0  0.21711  0.23350  0.72485  1.0000
  O   O27       1.0  0.55118  0.59115  0.06374  1.0000
  O   O28       1.0  0.70430  0.54157  0.03564  1.0000
  O   O29       1.0  0.60612  0.01503  0.31693  1.0000
  O   O30       1.0  0.57637  0.94458  0.21178  1.0000
  O   O31       1.0  0.34837  0.06488  0.33367  1.0000
  O   O32       1.0  0.32416  0.95420  0.27570  1.0000
