data_image0
_chemical_formula_structural       Ca6H36C30O24
_chemical_formula_sum              "Ca6 H36 C30 O24"
_cell_length_a       8.75
_cell_length_b       12.597
_cell_length_c       12.598
_cell_angle_alpha    114.647
_cell_angle_beta     103.32
_cell_angle_gamma    103.37

_space_group_name_H-M_alt    "P 1"
_space_group_IT_number       1

loop_
  _space_group_symop_operation_xyz
  'x, y, z'

loop_
  _atom_site_type_symbol
  _atom_site_label
  _atom_site_symmetry_multiplicity
  _atom_site_fract_x
  _atom_site_fract_y
  _atom_site_fract_z
  _atom_site_occupancy
  Ca  Ca1       1.0  0.01289  0.42603  0.62348  1.0000
  Ca  Ca2       1.0  0.58699  0.19684  0.57411  1.0000
  Ca  Ca3       1.0  0.38929  0.37600  0.80319  1.0000
  Ca  Ca4       1.0  0.98713  0.57397  0.37650  1.0000
  Ca  Ca5       1.0  0.41302  0.80317  0.42586  1.0000
  Ca  Ca6       1.0  0.61072  0.62400  0.19678  1.0000
  H   H1        1.0  0.96151  0.18476  0.90367  1.0000
  H   H2        1.0  0.76474  0.13444  0.78218  1.0000
  H   H3        1.0  0.96493  0.40354  0.00478  1.0000
  H   H4        1.0  0.77857  0.35935  0.87891  1.0000
  H   H5        1.0  0.62606  0.20513  0.93712  1.0000
  H   H6        1.0  0.81215  0.27323  0.07549  1.0000
  H   H7        1.0  0.77585  0.71693  0.81359  1.0000
  H   H8        1.0  0.62980  0.64614  0.86490  1.0000
  H   H9        1.0  0.56036  0.60075  0.59552  1.0000
  H   H10       1.0  0.41854  0.51896  0.64028  1.0000
  H   H11       1.0  0.42040  0.73069  0.79479  1.0000
  H   H12       1.0  0.53801  0.80112  0.72610  1.0000
  H   H13       1.0  0.06058  0.09807  0.28316  1.0000
  H   H14       1.0  0.98506  0.21968  0.35402  1.0000
  H   H15       1.0  0.96064  0.99535  0.39943  1.0000
  H   H16       1.0  0.89972  0.12117  0.48086  1.0000
  H   H17       1.0  0.69147  0.06500  0.26889  1.0000
  H   H18       1.0  0.73927  0.92645  0.19887  1.0000
  H   H19       1.0  0.03850  0.81524  0.09630  1.0000
  H   H20       1.0  0.23528  0.86557  0.21779  1.0000
  H   H21       1.0  0.03508  0.59646  0.99520  1.0000
  H   H22       1.0  0.22144  0.64065  0.12107  1.0000
  H   H23       1.0  0.37395  0.79487  0.06285  1.0000
  H   H24       1.0  0.18786  0.72677  0.92449  1.0000
  H   H25       1.0  0.22417  0.28307  0.18638  1.0000
  H   H26       1.0  0.37021  0.35386  0.13507  1.0000
  H   H27       1.0  0.43965  0.39925  0.40445  1.0000
  H   H28       1.0  0.58148  0.48104  0.35969  1.0000
  H   H29       1.0  0.57961  0.26932  0.20519  1.0000
  H   H30       1.0  0.46200  0.19888  0.27387  1.0000
  H   H31       1.0  0.93944  0.90193  0.71681  1.0000
  H   H32       1.0  0.01496  0.78032  0.64595  1.0000
  H   H33       1.0  0.03938  0.00465  0.60054  1.0000
  H   H34       1.0  0.10029  0.87883  0.51911  1.0000
  H   H35       1.0  0.30854  0.93500  0.73108  1.0000
  H   H36       1.0  0.26074  0.07356  0.80110  1.0000
  C   C1        1.0  0.97795  0.25442  0.77558  1.0000
  C   C2        1.0  0.88376  0.21480  0.84865  1.0000
  C   C3        1.0  0.84545  0.32546  0.93541  1.0000
  C   C4        1.0  0.73822  0.29038  0.00533  1.0000
  C   C5        1.0  0.67831  0.39467  0.06986  1.0000
  C   C6        1.0  0.72231  0.51965  0.74450  1.0000
  C   C7        1.0  0.66807  0.63232  0.78413  1.0000
  C   C8        1.0  0.51911  0.60910  0.67387  1.0000
  C   C9        1.0  0.44712  0.71398  0.70928  1.0000
  C   C10       1.0  0.28301  0.67490  0.60544  1.0000
  C   C11       1.0  0.20335  0.22484  0.48043  1.0000
  C   C12       1.0  0.03701  0.15261  0.36779  1.0000
  C   C13       1.0  0.91097  0.06528  0.39087  1.0000
  C   C14       1.0  0.73477  0.99617  0.28584  1.0000
  C   C15       1.0  0.60914  0.93113  0.32474  1.0000
  C   C16       1.0  0.02206  0.74557  0.22438  1.0000
  C   C17       1.0  0.11626  0.78520  0.15132  1.0000
  C   C18       1.0  0.15456  0.67454  0.06456  1.0000
  C   C19       1.0  0.26179  0.70962  0.99465  1.0000
  C   C20       1.0  0.32170  0.60533  0.93011  1.0000
  C   C21       1.0  0.27770  0.48035  0.25547  1.0000
  C   C22       1.0  0.33194  0.36768  0.21584  1.0000
  C   C23       1.0  0.48090  0.39091  0.32611  1.0000
  C   C24       1.0  0.55290  0.28602  0.29069  1.0000
  C   C25       1.0  0.71701  0.32510  0.39453  1.0000
  C   C26       1.0  0.79667  0.77517  0.51954  1.0000
  C   C27       1.0  0.96299  0.84738  0.63218  1.0000
  C   C28       1.0  0.08904  0.93472  0.60910  1.0000
  C   C29       1.0  0.26523  0.00383  0.71413  1.0000
  C   C30       1.0  0.39088  0.06888  0.67523  1.0000
  O   O1        1.0  0.89219  0.26736  0.68672  1.0000
  O   O2        1.0  0.13478  0.27697  0.80851  1.0000
  O   O3        1.0  0.55676  0.40889  0.00591  1.0000
  O   O4        1.0  0.75151  0.47022  0.18835  1.0000
  O   O5        1.0  0.62361  0.41811  0.73196  1.0000
  O   O6        1.0  0.85649  0.52981  0.72163  1.0000
  O   O7        1.0  0.14754  0.59661  0.59136  1.0000
  O   O8        1.0  0.28042  0.71880  0.53022  1.0000
  O   O9        1.0  0.20595  0.31346  0.58184  1.0000
  O   O10       1.0  0.32710  0.19145  0.47033  1.0000
  O   O11       1.0  0.55276  0.99509  0.40382  1.0000
  O   O12       1.0  0.56130  0.81208  0.27988  1.0000
  O   O13       1.0  0.10782  0.73264  0.31325  1.0000
  O   O14       1.0  0.86523  0.72303  0.19146  1.0000
  O   O15       1.0  0.44325  0.59111  0.99406  1.0000
  O   O16       1.0  0.24850  0.52978  0.81163  1.0000
  O   O17       1.0  0.37640  0.58190  0.26802  1.0000
  O   O18       1.0  0.14352  0.47019  0.27834  1.0000
  O   O19       1.0  0.85247  0.40339  0.40862  1.0000
  O   O20       1.0  0.71960  0.28120  0.46975  1.0000
  O   O21       1.0  0.79406  0.68654  0.41813  1.0000
  O   O22       1.0  0.67291  0.80856  0.52964  1.0000
  O   O23       1.0  0.44726  0.00491  0.59615  1.0000
  O   O24       1.0  0.43871  0.18792  0.72010  1.0000
