data_image0
_chemical_formula_structural       Zn8H16C48S8O32
_chemical_formula_sum              "Zn8 H16 C48 S8 O32"
_cell_length_a       10.009
_cell_length_b       13.154
_cell_length_c       15.547
_cell_angle_alpha    89.998
_cell_angle_beta     89.946
_cell_angle_gamma    89.972

_space_group_name_H-M_alt    "P 1"
_space_group_IT_number       1

loop_
  _space_group_symop_operation_xyz
  'x, y, z'

loop_
  _atom_site_type_symbol
  _atom_site_label
  _atom_site_symmetry_multiplicity
  _atom_site_fract_x
  _atom_site_fract_y
  _atom_site_fract_z
  _atom_site_occupancy
  Zn  Zn1       1.0  0.11034  0.94272  0.30372  1.0000
  Zn  Zn2       1.0  0.09972  0.25866  0.24793  1.0000
  Zn  Zn3       1.0  0.40001  0.05837  0.80394  1.0000
  Zn  Zn4       1.0  0.41059  0.74218  0.74791  1.0000
  Zn  Zn5       1.0  0.89969  0.44467  0.19991  1.0000
  Zn  Zn6       1.0  0.90716  0.75965  0.25572  1.0000
  Zn  Zn7       1.0  0.61074  0.55899  0.69988  1.0000
  Zn  Zn8       1.0  0.60025  0.24372  0.75579  1.0000
  H   H1        1.0  0.53058  0.97472  0.35718  1.0000
  H   H2        1.0  0.78079  0.04155  0.33785  1.0000
  H   H3        1.0  0.66036  0.77795  0.46678  1.0000
  H   H4        1.0  0.50461  0.86293  0.58489  1.0000
  H   H5        1.0  0.97917  0.02746  0.85629  1.0000
  H   H6        1.0  0.72912  0.96065  0.83663  1.0000
  H   H7        1.0  0.84780  0.22540  0.96684  1.0000
  H   H8        1.0  0.00388  0.14141  0.08503  1.0000
  H   H9        1.0  0.47746  0.47523  0.14436  1.0000
  H   H10       1.0  0.22731  0.54182  0.16487  1.0000
  H   H11       1.0  0.34789  0.27677  0.03665  1.0000
  H   H12       1.0  0.50422  0.36105  0.91868  1.0000
  H   H13       1.0  0.03099  0.52632  0.64514  1.0000
  H   H14       1.0  0.28133  0.45978  0.66521  1.0000
  H   H15       1.0  0.16388  0.72474  0.53735  1.0000
  H   H16       1.0  0.00694  0.64196  0.41909  1.0000
  C   C1        1.0  0.46681  0.11138  0.28972  1.0000
  C   C2        1.0  0.55953  0.04478  0.32507  1.0000
  C   C3        1.0  0.69149  0.07957  0.31475  1.0000
  C   C4        1.0  0.69768  0.17191  0.27163  1.0000
  C   C5        1.0  0.31998  0.10268  0.28828  1.0000
  C   C6        1.0  0.81732  0.23215  0.25201  1.0000
  C   C7        1.0  0.79662  0.90492  0.48453  1.0000
  C   C8        1.0  0.68199  0.84829  0.50078  1.0000
  C   C9        1.0  0.59967  0.89354  0.56323  1.0000
  C   C10       1.0  0.65295  0.98374  0.59465  1.0000
  C   C11       1.0  0.89562  0.88313  0.41698  1.0000
  C   C12       1.0  0.59445  0.04979  0.66129  1.0000
  C   C13       1.0  0.04343  0.89106  0.78859  1.0000
  C   C14       1.0  0.95042  0.95750  0.82398  1.0000
  C   C15       1.0  0.81854  0.92274  0.81347  1.0000
  C   C16       1.0  0.81262  0.83065  0.76997  1.0000
  C   C17       1.0  0.19024  0.90038  0.78782  1.0000
  C   C18       1.0  0.69326  0.77023  0.75029  1.0000
  C   C19       1.0  0.71279  0.09754  0.98442  1.0000
  C   C20       1.0  0.82672  0.15490  0.00000  1.0000
  C   C21       1.0  0.90925  0.11021  0.06333  1.0000
  C   C22       1.0  0.85693  0.01966  0.09472  1.0000
  C   C23       1.0  0.61352  0.11862  0.91691  1.0000
  C   C24       1.0  0.91563  0.95388  0.16144  1.0000
  C   C25       1.0  0.54154  0.61073  0.21332  1.0000
  C   C26       1.0  0.44866  0.54480  0.17731  1.0000
  C   C27       1.0  0.31666  0.57942  0.18830  1.0000
  C   C28       1.0  0.31051  0.67098  0.23259  1.0000
  C   C29       1.0  0.68847  0.60213  0.21422  1.0000
  C   C30       1.0  0.19133  0.73164  0.25287  1.0000
  C   C31       1.0  0.21252  0.40448  0.01906  1.0000
  C   C32       1.0  0.32673  0.34729  0.00277  1.0000
  C   C33       1.0  0.40939  0.39215  0.94032  1.0000
  C   C34       1.0  0.35693  0.48267  0.90894  1.0000
  C   C35       1.0  0.11328  0.38345  0.08670  1.0000
  C   C36       1.0  0.41600  0.54855  0.84237  1.0000
  C   C37       1.0  0.96738  0.39092  0.71445  1.0000
  C   C38       1.0  0.06002  0.45687  0.67815  1.0000
  C   C39       1.0  0.19200  0.42230  0.68888  1.0000
  C   C40       1.0  0.19823  0.33077  0.73321  1.0000
  C   C41       1.0  0.82059  0.39961  0.71559  1.0000
  C   C42       1.0  0.31786  0.27073  0.75324  1.0000
  C   C43       1.0  0.29782  0.59625  0.51946  1.0000
  C   C44       1.0  0.18426  0.65419  0.50329  1.0000
  C   C45       1.0  0.10127  0.61010  0.44074  1.0000
  C   C46       1.0  0.15279  0.51931  0.40917  1.0000
  C   C47       1.0  0.39729  0.61697  0.58688  1.0000
  C   C48       1.0  0.09305  0.45421  0.34231  1.0000
  S   S1        1.0  0.54156  0.21626  0.24343  1.0000
  S   S2        1.0  0.80368  0.01359  0.54675  1.0000
  S   S3        1.0  0.96900  0.78647  0.74178  1.0000
  S   S4        1.0  0.70673  0.98884  0.04668  1.0000
  S   S5        1.0  0.46681  0.71480  0.26100  1.0000
  S   S6        1.0  0.20642  0.51327  0.95688  1.0000
  S   S7        1.0  0.04214  0.28688  0.76202  1.0000
  S   S8        1.0  0.30280  0.48757  0.45707  1.0000
  O   O1        1.0  0.26807  0.02675  0.32664  1.0000
  O   O2        1.0  0.79975  0.31510  0.21100  1.0000
  O   O3        1.0  0.98223  0.95216  0.39998  1.0000
  O   O4        1.0  0.48280  0.02156  0.69308  1.0000
  O   O5        1.0  0.25835  0.17283  0.24785  1.0000
  O   O6        1.0  0.88474  0.79785  0.37862  1.0000
  O   O7        1.0  0.66024  0.12957  0.68191  1.0000
  O   O8        1.0  0.92954  0.19638  0.27788  1.0000
  O   O9        1.0  0.24003  0.97697  0.82644  1.0000
  O   O10       1.0  0.71107  0.68848  0.70756  1.0000
  O   O11       1.0  0.52824  0.04860  0.89989  1.0000
  O   O12       1.0  0.02698  0.98226  0.19340  1.0000
  O   O13       1.0  0.25400  0.83099  0.74781  1.0000
  O   O14       1.0  0.62251  0.20409  0.87872  1.0000
  O   O15       1.0  0.84984  0.87395  0.18187  1.0000
  O   O16       1.0  0.58103  0.80430  0.77783  1.0000
  O   O17       1.0  0.74038  0.52685  0.17480  1.0000
  O   O18       1.0  0.21025  0.81318  0.29573  1.0000
  O   O19       1.0  0.02786  0.45346  0.10372  1.0000
  O   O20       1.0  0.52747  0.52001  0.81045  1.0000
  O   O21       1.0  0.75040  0.67134  0.25559  1.0000
  O   O22       1.0  0.12237  0.29802  0.12499  1.0000
  O   O23       1.0  0.35065  0.62875  0.82200  1.0000
  O   O24       1.0  0.07869  0.69814  0.22580  1.0000
  O   O25       1.0  0.76899  0.47538  0.67681  1.0000
  O   O26       1.0  0.30061  0.18896  0.79595  1.0000
  O   O27       1.0  0.48267  0.54697  0.60386  1.0000
  O   O28       1.0  0.98288  0.48460  0.30992  1.0000
  O   O29       1.0  0.75864  0.32984  0.75629  1.0000
  O   O30       1.0  0.38847  0.70246  0.62517  1.0000
  O   O31       1.0  0.15655  0.37314  0.32216  1.0000
  O   O32       1.0  0.42985  0.30547  0.72586  1.0000
