data_image0
_chemical_formula_structural       Cd4H48C66O24
_chemical_formula_sum              "Cd4 H48 C66 O24"
_cell_length_a       10.816
_cell_length_b       15.94
_cell_length_c       18.497
_cell_angle_alpha    114.393
_cell_angle_beta     107.119
_cell_angle_gamma    93.922

_space_group_name_H-M_alt    "P 1"
_space_group_IT_number       1

loop_
  _space_group_symop_operation_xyz
  'x, y, z'

loop_
  _atom_site_type_symbol
  _atom_site_label
  _atom_site_symmetry_multiplicity
  _atom_site_fract_x
  _atom_site_fract_y
  _atom_site_fract_z
  _atom_site_occupancy
  Cd  Cd1       1.0  0.07059  0.61723  0.57390  1.0000
  Cd  Cd2       1.0  0.19257  0.51112  0.36795  1.0000
  Cd  Cd3       1.0  0.92940  0.38277  0.42617  1.0000
  Cd  Cd4       1.0  0.80741  0.48892  0.63219  1.0000
  H   H1        1.0  0.56822  0.31516  0.62430  1.0000
  H   H2        1.0  0.41135  0.49766  0.03734  1.0000
  H   H3        1.0  0.66204  0.36230  0.92738  1.0000
  H   H4        1.0  0.68866  0.29506  0.83072  1.0000
  H   H5        1.0  0.12826  0.97965  0.66990  1.0000
  H   H6        1.0  0.42662  0.36306  0.83650  1.0000
  H   H7        1.0  0.31862  0.25175  0.75829  1.0000
  H   H8        1.0  0.80702  0.17425  0.13733  1.0000
  H   H9        1.0  0.25629  0.36877  0.72861  1.0000
  H   H10       1.0  0.72877  0.12711  0.98131  1.0000
  H   H11       1.0  0.52817  0.98737  0.67010  1.0000
  H   H12       1.0  0.06298  0.81046  0.56234  1.0000
  H   H13       1.0  0.84022  0.41818  0.03745  1.0000
  H   H14       1.0  0.92334  0.46342  0.19144  1.0000
  H   H15       1.0  0.50754  0.20762  0.94010  1.0000
  H   H16       1.0  0.34431  0.19978  0.87396  1.0000
  H   H17       1.0  0.47029  0.38574  0.52920  1.0000
  H   H18       1.0  0.37681  0.21791  0.01866  1.0000
  H   H19       1.0  0.46125  0.81988  0.56238  1.0000
  H   H20       1.0  0.28812  0.26911  0.13634  1.0000
  H   H21       1.0  0.55699  0.10379  0.80467  1.0000
  H   H22       1.0  0.52696  0.14003  0.72242  1.0000
  H   H23       1.0  0.31677  0.54661  0.15451  1.0000
  H   H24       1.0  0.15888  0.43680  0.63280  1.0000
  H   H25       1.0  0.43176  0.68485  0.37582  1.0000
  H   H26       1.0  0.58865  0.50238  0.96280  1.0000
  H   H27       1.0  0.33793  0.63774  0.07275  1.0000
  H   H28       1.0  0.31130  0.70498  0.16940  1.0000
  H   H29       1.0  0.87170  0.02038  0.33020  1.0000
  H   H30       1.0  0.57335  0.63699  0.16359  1.0000
  H   H31       1.0  0.68135  0.74830  0.24184  1.0000
  H   H32       1.0  0.19304  0.82575  0.86278  1.0000
  H   H33       1.0  0.74369  0.63127  0.27151  1.0000
  H   H34       1.0  0.27126  0.87290  0.00000  1.0000
  H   H35       1.0  0.47179  0.00000  0.32996  1.0000
  H   H36       1.0  0.93701  0.18957  0.43778  1.0000
  H   H37       1.0  0.15973  0.58184  0.96267  1.0000
  H   H38       1.0  0.07663  0.53659  0.80868  1.0000
  H   H39       1.0  0.49243  0.79242  0.05999  1.0000
  H   H40       1.0  0.65565  0.80026  0.12617  1.0000
  H   H41       1.0  0.52970  0.61425  0.47090  1.0000
  H   H42       1.0  0.62312  0.78211  0.98145  1.0000
  H   H43       1.0  0.53874  0.18018  0.43775  1.0000
  H   H44       1.0  0.71182  0.73090  0.86377  1.0000
  H   H45       1.0  0.44296  0.89625  0.19546  1.0000
  H   H46       1.0  0.47301  0.86001  0.27771  1.0000
  H   H47       1.0  0.68324  0.45343  0.84565  1.0000
  H   H48       1.0  0.84111  0.56323  0.36730  1.0000
  C   C1        1.0  0.47814  0.34131  0.62523  1.0000
  C   C2        1.0  0.38276  0.44832  0.05946  1.0000
  C   C3        1.0  0.65102  0.29071  0.87832  1.0000
  C   C4        1.0  0.20052  0.94355  0.64635  1.0000
  C   C5        1.0  0.42271  0.29102  0.79067  1.0000
  C   C6        1.0  0.81457  0.22676  0.11460  1.0000
  C   C7        1.0  0.30325  0.37127  0.68480  1.0000
  C   C8        1.0  0.77032  0.20062  0.02835  1.0000
  C   C9        1.0  0.42623  0.94944  0.64712  1.0000
  C   C10       1.0  0.16511  0.84924  0.58689  1.0000
  C   C11       1.0  0.83147  0.36467  0.05896  1.0000
  C   C12       1.0  0.87829  0.39007  0.14543  1.0000
  C   C13       1.0  0.44761  0.24016  0.90397  1.0000
  C   C14       1.0  0.42370  0.38099  0.57258  1.0000
  C   C15       1.0  0.36401  0.29002  0.04772  1.0000
  C   C16       1.0  0.50297  0.23990  0.83626  1.0000
  C   C17       1.0  0.33166  0.99424  0.67716  1.0000
  C   C18       1.0  0.29590  0.41069  0.15206  1.0000
  C   C19       1.0  0.38892  0.85512  0.58658  1.0000
  C   C20       1.0  0.41765  0.33585  0.68121  1.0000
  C   C21       1.0  0.24641  0.44219  0.22430  1.0000
  C   C22       1.0  0.77572  0.26975  0.00020  1.0000
  C   C23       1.0  0.31369  0.31848  0.11352  1.0000
  C   C24       1.0  0.49331  0.13825  0.77257  1.0000
  C   C25       1.0  0.86799  0.32195  0.17420  1.0000
  C   C26       1.0  0.24638  0.45453  0.51612  1.0000
  C   C27       1.0  0.30739  0.41530  0.57425  1.0000
  C   C28       1.0  0.33046  0.47504  0.12376  1.0000
  C   C29       1.0  0.24837  0.40998  0.63088  1.0000
  C   C30       1.0  0.39962  0.35553  0.02113  1.0000
  C   C31       1.0  0.22303  0.70302  0.49223  1.0000
  C   C32       1.0  0.25886  0.80355  0.55610  1.0000
  C   C33       1.0  0.90572  0.34973  0.26572  1.0000
  C   C34       1.0  0.52186  0.65873  0.37490  1.0000
  C   C35       1.0  0.61723  0.55172  0.94068  1.0000
  C   C36       1.0  0.34894  0.70932  0.12181  1.0000
  C   C37       1.0  0.79944  0.05649  0.35377  1.0000
  C   C38       1.0  0.57726  0.70903  0.20946  1.0000
  C   C39       1.0  0.18547  0.77325  0.88551  1.0000
  C   C40       1.0  0.69675  0.62879  0.31533  1.0000
  C   C41       1.0  0.22969  0.79939  0.97176  1.0000
  C   C42       1.0  0.57374  0.05062  0.35300  1.0000
  C   C43       1.0  0.83487  0.15080  0.41324  1.0000
  C   C44       1.0  0.16849  0.63535  0.94116  1.0000
  C   C45       1.0  0.12169  0.60995  0.85469  1.0000
  C   C46       1.0  0.55235  0.75988  0.09616  1.0000
  C   C47       1.0  0.57627  0.61900  0.42750  1.0000
  C   C48       1.0  0.63594  0.71001  0.95241  1.0000
  C   C49       1.0  0.49699  0.76014  0.16380  1.0000
  C   C50       1.0  0.66830  0.00000  0.32296  1.0000
  C   C51       1.0  0.70406  0.58933  0.84808  1.0000
  C   C52       1.0  0.61107  0.14493  0.41355  1.0000
  C   C53       1.0  0.58230  0.66416  0.31889  1.0000
  C   C54       1.0  0.75356  0.55783  0.77583  1.0000
  C   C55       1.0  0.22427  0.73027  0.99984  1.0000
  C   C56       1.0  0.68626  0.68155  0.88660  1.0000
  C   C57       1.0  0.50664  0.86179  0.22756  1.0000
  C   C58       1.0  0.13202  0.67806  0.82591  1.0000
  C   C59       1.0  0.75360  0.54544  0.48394  1.0000
  C   C60       1.0  0.69262  0.58473  0.42586  1.0000
  C   C61       1.0  0.66952  0.52500  0.87639  1.0000
  C   C62       1.0  0.75160  0.59003  0.36920  1.0000
  C   C63       1.0  0.60035  0.64450  0.97901  1.0000
  C   C64       1.0  0.77699  0.29702  0.50791  1.0000
  C   C65       1.0  0.74112  0.19649  0.44396  1.0000
  C   C66       1.0  0.09431  0.65028  0.73439  1.0000
  O   O1        1.0  0.35794  0.08658  0.73603  1.0000
  O   O2        1.0  0.96950  0.43372  0.32227  1.0000
  O   O3        1.0  0.72851  0.23766  0.91383  1.0000
  O   O4        1.0  0.30201  0.46532  0.46869  1.0000
  O   O5        1.0  0.13073  0.47610  0.51577  1.0000
  O   O6        1.0  0.45343  0.33670  0.95885  1.0000
  O   O7        1.0  0.86678  0.28917  0.28818  1.0000
  O   O8        1.0  0.47765  0.29437  0.72986  1.0000
  O   O9        1.0  0.24234  0.39018  0.26114  1.0000
  O   O10       1.0  0.11360  0.64874  0.47746  1.0000
  O   O11       1.0  0.29816  0.67026  0.45144  1.0000
  O   O12       1.0  0.21323  0.52231  0.24920  1.0000
  O   O13       1.0  0.64202  0.91346  0.26409  1.0000
  O   O14       1.0  1.00000  0.56630  0.67784  1.0000
  O   O15       1.0  0.27145  0.76237  0.08628  1.0000
  O   O16       1.0  0.69799  0.53466  0.53139  1.0000
  O   O17       1.0  0.86927  0.52391  0.48430  1.0000
  O   O18       1.0  0.54653  0.66334  0.04128  1.0000
  O   O19       1.0  0.13329  0.71083  0.71194  1.0000
  O   O20       1.0  0.52233  0.70568  0.27028  1.0000
  O   O21       1.0  0.75760  0.60983  0.73898  1.0000
  O   O22       1.0  0.88641  0.35129  0.52267  1.0000
  O   O23       1.0  0.70188  0.32979  0.54871  1.0000
  O   O24       1.0  0.78675  0.47772  0.75094  1.0000
