data_image0
_chemical_formula_structural       Zn16H160C224N16O64
_chemical_formula_sum              "Zn16 H160 C224 N16 O64"
_cell_length_a       21.85
_cell_length_b       21.892
_cell_length_c       13.972
_cell_angle_alpha    95.2
_cell_angle_beta     99.23
_cell_angle_gamma    99.89

_space_group_name_H-M_alt    "P 1"
_space_group_IT_number       1

loop_
  _space_group_symop_operation_xyz
  'x, y, z'

loop_
  _atom_site_type_symbol
  _atom_site_label
  _atom_site_symmetry_multiplicity
  _atom_site_fract_x
  _atom_site_fract_y
  _atom_site_fract_z
  _atom_site_occupancy
  Zn  Zn1       1.0  0.19553  0.37802  0.89234  1.0000
  Zn  Zn2       1.0  0.18630  0.88161  0.89234  1.0000
  Zn  Zn3       1.0  0.70195  0.37816  0.89247  1.0000
  Zn  Zn4       1.0  0.69271  0.88174  0.89247  1.0000
  Zn  Zn5       1.0  0.16824  0.35857  0.68104  1.0000
  Zn  Zn6       1.0  0.15900  0.86216  0.68104  1.0000
  Zn  Zn7       1.0  0.67302  0.35849  0.68090  1.0000
  Zn  Zn8       1.0  0.66379  0.86208  0.68090  1.0000
  Zn  Zn9       1.0  0.33947  0.14366  0.12252  1.0000
  Zn  Zn10      1.0  0.33023  0.64725  0.12252  1.0000
  Zn  Zn11      1.0  0.84588  0.14379  0.12265  1.0000
  Zn  Zn12      1.0  0.83665  0.64738  0.12265  1.0000
  Zn  Zn13      1.0  0.36839  0.16333  0.33409  1.0000
  Zn  Zn14      1.0  0.35916  0.66692  0.33409  1.0000
  Zn  Zn15      1.0  0.87318  0.16325  0.33395  1.0000
  Zn  Zn16      1.0  0.86394  0.66684  0.33395  1.0000
  H   H1        1.0  0.15334  0.04099  0.64056  1.0000
  H   H2        1.0  0.14420  0.54459  0.64054  1.0000
  H   H3        1.0  0.65861  0.04099  0.64057  1.0000
  H   H4        1.0  0.64940  0.54458  0.64057  1.0000
  H   H5        1.0  0.14471  0.15392  0.63560  1.0000
  H   H6        1.0  0.13558  0.65753  0.63559  1.0000
  H   H7        1.0  0.65001  0.15395  0.63567  1.0000
  H   H8        1.0  0.64080  0.65754  0.63566  1.0000
  H   H9        1.0  0.22275  0.19242  0.94188  1.0000
  H   H10       1.0  0.21356  0.69601  0.94188  1.0000
  H   H11       1.0  0.72872  0.19252  0.94170  1.0000
  H   H12       1.0  0.71958  0.69612  0.94167  1.0000
  H   H13       1.0  0.22984  0.08032  0.94723  1.0000
  H   H14       1.0  0.22065  0.58392  0.94724  1.0000
  H   H15       1.0  0.73571  0.08041  0.94705  1.0000
  H   H16       1.0  0.72656  0.58401  0.94702  1.0000
  H   H17       1.0  0.46437  0.33300  0.62519  1.0000
  H   H18       1.0  0.45512  0.83656  0.62500  1.0000
  H   H19       1.0  0.96984  0.33288  0.62459  1.0000
  H   H20       1.0  0.96058  0.83640  0.62460  1.0000
  H   H21       1.0  0.35197  0.34005  0.63336  1.0000
  H   H22       1.0  0.34273  0.84361  0.63337  1.0000
  H   H23       1.0  0.85746  0.33986  0.63282  1.0000
  H   H24       1.0  0.84820  0.84339  0.63283  1.0000
  H   H25       1.0  0.40468  0.40171  0.94082  1.0000
  H   H26       1.0  0.39544  0.90534  0.94081  1.0000
  H   H27       1.0  0.91029  0.40207  0.94011  1.0000
  H   H28       1.0  0.90106  0.90566  0.94010  1.0000
  H   H29       1.0  0.51705  0.39317  0.93282  1.0000
  H   H30       1.0  0.50781  0.89679  0.93280  1.0000
  H   H31       1.0  0.00000  0.39357  0.93207  1.0000
  H   H32       1.0  0.00000  0.89716  0.93206  1.0000
  H   H33       1.0  0.17237  0.45889  0.04743  1.0000
  H   H34       1.0  0.16305  0.96248  0.04738  1.0000
  H   H35       1.0  0.67798  0.45901  0.04731  1.0000
  H   H36       1.0  0.66877  0.96259  0.04729  1.0000
  H   H37       1.0  0.14256  0.26337  0.19469  1.0000
  H   H38       1.0  0.13356  0.76699  0.19477  1.0000
  H   H39       1.0  0.64906  0.26357  0.19494  1.0000
  H   H40       1.0  0.63990  0.76718  0.19497  1.0000
  H   H41       1.0  0.14600  0.26585  0.01657  1.0000
  H   H42       1.0  0.13697  0.76946  0.01664  1.0000
  H   H43       1.0  0.65268  0.26602  0.01687  1.0000
  H   H44       1.0  0.64348  0.76961  0.01689  1.0000
  H   H45       1.0  0.25823  0.38773  0.36875  1.0000
  H   H46       1.0  0.24905  0.89151  0.36885  1.0000
  H   H47       1.0  0.76394  0.38829  0.36925  1.0000
  H   H48       1.0  0.75476  0.89192  0.36930  1.0000
  H   H49       1.0  0.25918  0.38245  0.54810  1.0000
  H   H50       1.0  0.24996  0.88621  0.54819  1.0000
  H   H51       1.0  0.76458  0.38288  0.54852  1.0000
  H   H52       1.0  0.75537  0.88650  0.54856  1.0000
  H   H53       1.0  0.06445  0.33356  0.50278  1.0000
  H   H54       1.0  0.05525  0.83703  0.50271  1.0000
  H   H55       1.0  0.56988  0.33326  0.50219  1.0000
  H   H56       1.0  0.56067  0.83687  0.50217  1.0000
  H   H57       1.0  0.21979  0.49388  0.29380  1.0000
  H   H58       1.0  0.21059  0.99766  0.29347  1.0000
  H   H59       1.0  0.72524  0.49442  0.29300  1.0000
  H   H60       1.0  0.71608  0.99804  0.29325  1.0000
  H   H61       1.0  0.18241  0.01685  0.19578  1.0000
  H   H62       1.0  0.17355  0.52046  0.19586  1.0000
  H   H63       1.0  0.68763  0.01694  0.19555  1.0000
  H   H64       1.0  0.67835  0.52051  0.19557  1.0000
  H   H65       1.0  0.13715  0.48499  0.28757  1.0000
  H   H66       1.0  0.12798  0.98846  0.28784  1.0000
  H   H67       1.0  0.64261  0.48482  0.28771  1.0000
  H   H68       1.0  0.63346  0.98843  0.28774  1.0000
  H   H69       1.0  0.03431  0.29809  0.24142  1.0000
  H   H70       1.0  0.02521  0.80154  0.24139  1.0000
  H   H71       1.0  0.54034  0.29806  0.24077  1.0000
  H   H72       1.0  0.53115  0.80164  0.24079  1.0000
  H   H73       1.0  0.50478  0.31390  0.34342  1.0000
  H   H74       1.0  0.49559  0.81756  0.34341  1.0000
  H   H75       1.0  0.00000  0.31440  0.34420  1.0000
  H   H76       1.0  0.00000  0.81785  0.34412  1.0000
  H   H77       1.0  0.02428  0.37501  0.27462  1.0000
  H   H78       1.0  0.01509  0.87844  0.27446  1.0000
  H   H79       1.0  0.52990  0.37480  0.27425  1.0000
  H   H80       1.0  0.52074  0.87841  0.27417  1.0000
  H   H81       1.0  0.38277  0.48082  0.37442  1.0000
  H   H82       1.0  0.37357  0.98441  0.37442  1.0000
  H   H83       1.0  0.88799  0.48082  0.37444  1.0000
  H   H84       1.0  0.87886  0.98443  0.37443  1.0000
  H   H85       1.0  0.39138  0.36787  0.37933  1.0000
  H   H86       1.0  0.38217  0.87146  0.37932  1.0000
  H   H87       1.0  0.89661  0.36788  0.37900  1.0000
  H   H88       1.0  0.88748  0.87149  0.37938  1.0000
  H   H89       1.0  0.31261  0.32928  0.07331  1.0000
  H   H90       1.0  0.30346  0.83289  0.07329  1.0000
  H   H91       1.0  0.81862  0.32940  0.07311  1.0000
  H   H92       1.0  0.80943  0.83299  0.07312  1.0000
  H   H93       1.0  0.30563  0.44140  0.06796  1.0000
  H   H94       1.0  0.29647  0.94500  0.06794  1.0000
  H   H95       1.0  0.81153  0.44149  0.06775  1.0000
  H   H96       1.0  0.80234  0.94508  0.06776  1.0000
  H   H97       1.0  0.07160  0.18901  0.39039  1.0000
  H   H98       1.0  0.06234  0.69253  0.39000  1.0000
  H   H99       1.0  0.57706  0.18885  0.38979  1.0000
  H   H100      1.0  0.56781  0.69240  0.38980  1.0000
  H   H101      1.0  0.18398  0.18202  0.38216  1.0000
  H   H102      1.0  0.17472  0.68555  0.38217  1.0000
  H   H103      1.0  0.68945  0.18180  0.38162  1.0000
  H   H104      1.0  0.68020  0.68535  0.38160  1.0000
  H   H105      1.0  0.13113  0.11976  0.07488  1.0000
  H   H106      1.0  0.12189  0.62335  0.07488  1.0000
  H   H107      1.0  0.63674  0.12008  0.07418  1.0000
  H   H108      1.0  0.62750  0.62371  0.07416  1.0000
  H   H109      1.0  0.01883  0.12826  0.08293  1.0000
  H   H110      1.0  0.00959  0.63184  0.08292  1.0000
  H   H111      1.0  0.52437  0.12862  0.08218  1.0000
  H   H112      1.0  0.51514  0.63225  0.08217  1.0000
  H   H113      1.0  0.36342  0.06281  0.96769  1.0000
  H   H114      1.0  0.35421  0.56641  0.96760  1.0000
  H   H115      1.0  0.86913  0.06293  0.96760  1.0000
  H   H116      1.0  0.85981  0.56652  0.96755  1.0000
  H   H117      1.0  0.39229  0.25824  0.82003  1.0000
  H   H118      1.0  0.38312  0.76184  0.82006  1.0000
  H   H119      1.0  0.89863  0.25843  0.82023  1.0000
  H   H120      1.0  0.88963  0.76205  0.82031  1.0000
  H   H121      1.0  0.38870  0.25580  0.99811  1.0000
  H   H122      1.0  0.37951  0.75939  0.99813  1.0000
  H   H123      1.0  0.89522  0.25595  0.99836  1.0000
  H   H124      1.0  0.88620  0.75956  0.99843  1.0000
  H   H125      1.0  0.27743  0.13351  0.64570  1.0000
  H   H126      1.0  0.26825  0.63713  0.64570  1.0000
  H   H127      1.0  0.78314  0.13392  0.64614  1.0000
  H   H128      1.0  0.77396  0.63771  0.64620  1.0000
  H   H129      1.0  0.27681  0.13892  0.46644  1.0000
  H   H130      1.0  0.26761  0.64254  0.46648  1.0000
  H   H131      1.0  0.78223  0.13922  0.46681  1.0000
  H   H132      1.0  0.77301  0.64299  0.46600  1.0000
  H   H133      1.0  0.47151  0.18854  0.51282  1.0000
  H   H134      1.0  0.46230  0.69216  0.51280  1.0000
  H   H135      1.0  0.97693  0.18837  0.51228  1.0000
  H   H136      1.0  0.96773  0.69184  0.51220  1.0000
  H   H137      1.0  0.31611  0.02738  0.72170  1.0000
  H   H138      1.0  0.30695  0.53100  0.72169  1.0000
  H   H139      1.0  0.82159  0.02776  0.72151  1.0000
  H   H140      1.0  0.81240  0.53154  0.72117  1.0000
  H   H141      1.0  0.35384  0.50490  0.81941  1.0000
  H   H142      1.0  0.34456  0.00000  0.81943  1.0000
  H   H143      1.0  0.85862  0.50496  0.81910  1.0000
  H   H144      1.0  0.84977  0.00000  0.81919  1.0000
  H   H145      1.0  0.39873  0.03699  0.72724  1.0000
  H   H146      1.0  0.38957  0.54060  0.72727  1.0000
  H   H147      1.0  0.90420  0.03696  0.72714  1.0000
  H   H148      1.0  0.89503  0.54043  0.72742  1.0000
  H   H149      1.0  0.50103  0.22378  0.77420  1.0000
  H   H150      1.0  0.49184  0.72736  0.77420  1.0000
  H   H151      1.0  0.00000  0.22387  0.77360  1.0000
  H   H152      1.0  0.99788  0.72731  0.77356  1.0000
  H   H153      1.0  0.03089  0.20755  0.67087  1.0000
  H   H154      1.0  0.02173  0.71100  0.67076  1.0000
  H   H155      1.0  0.53660  0.20786  0.67158  1.0000
  H   H156      1.0  0.52740  0.71152  0.67157  1.0000
  H   H157      1.0  0.51145  0.14701  0.74082  1.0000
  H   H158      1.0  0.50229  0.65062  0.74073  1.0000
  H   H159      1.0  0.00000  0.14696  0.74053  1.0000
  H   H160      1.0  0.00000  0.65039  0.74037  1.0000
  C   C1        1.0  0.18749  0.48973  0.79648  1.0000
  C   C2        1.0  0.17820  0.99331  0.79648  1.0000
  C   C3        1.0  0.69276  0.48973  0.79644  1.0000
  C   C4        1.0  0.68350  0.99332  0.79645  1.0000
  C   C5        1.0  0.19221  0.05379  0.79392  1.0000
  C   C6        1.0  0.18305  0.55739  0.79391  1.0000
  C   C7        1.0  0.69770  0.05383  0.79385  1.0000
  C   C8        1.0  0.68851  0.55743  0.79383  1.0000
  C   C9        1.0  0.16820  0.07471  0.70603  1.0000
  C   C10       1.0  0.15905  0.57831  0.70602  1.0000
  C   C11       1.0  0.67359  0.07474  0.70601  1.0000
  C   C12       1.0  0.66440  0.57833  0.70600  1.0000
  C   C13       1.0  0.16335  0.13716  0.70337  1.0000
  C   C14       1.0  0.15420  0.64076  0.70336  1.0000
  C   C15       1.0  0.66877  0.13719  0.70337  1.0000
  C   C16       1.0  0.65957  0.64079  0.70336  1.0000
  C   C17       1.0  0.18278  0.18000  0.78838  1.0000
  C   C18       1.0  0.17361  0.68360  0.78838  1.0000
  C   C19       1.0  0.68834  0.18005  0.78835  1.0000
  C   C20       1.0  0.67915  0.68364  0.78834  1.0000
  C   C21       1.0  0.20697  0.15908  0.87614  1.0000
  C   C22       1.0  0.19779  0.66268  0.87614  1.0000
  C   C23       1.0  0.71277  0.15916  0.87601  1.0000
  C   C24       1.0  0.70360  0.66277  0.87599  1.0000
  C   C25       1.0  0.21131  0.09654  0.87901  1.0000
  C   C26       1.0  0.20213  0.60013  0.87901  1.0000
  C   C27       1.0  0.71706  0.09661  0.87888  1.0000
  C   C28       1.0  0.70789  0.60021  0.87885  1.0000
  C   C29       1.0  0.17844  0.24762  0.78503  1.0000
  C   C30       1.0  0.16926  0.75122  0.78504  1.0000
  C   C31       1.0  0.68386  0.24764  0.78510  1.0000
  C   C32       1.0  0.67464  0.75123  0.78509  1.0000
  C   C33       1.0  0.05933  0.35975  0.77344  1.0000
  C   C34       1.0  0.05009  0.86331  0.77340  1.0000
  C   C35       1.0  0.56506  0.35966  0.77368  1.0000
  C   C36       1.0  0.55582  0.86324  0.77368  1.0000
  C   C37       1.0  0.49740  0.36286  0.77855  1.0000
  C   C38       1.0  0.48816  0.86645  0.77855  1.0000
  C   C39       1.0  0.00000  0.36301  0.77780  1.0000
  C   C40       1.0  0.99375  0.86657  0.77787  1.0000
  C   C41       1.0  0.45085  0.34801  0.69398  1.0000
  C   C42       1.0  0.44161  0.85158  0.69398  1.0000
  C   C43       1.0  0.95639  0.34803  0.69337  1.0000
  C   C44       1.0  0.94714  0.85156  0.69338  1.0000
  C   C45       1.0  0.38855  0.35239  0.69839  1.0000
  C   C46       1.0  0.37931  0.85596  0.69839  1.0000
  C   C47       1.0  0.89405  0.35235  0.69782  1.0000
  C   C48       1.0  0.88480  0.85590  0.69783  1.0000
  C   C49       1.0  0.37167  0.37212  0.78733  1.0000
  C   C50       1.0  0.36243  0.87571  0.78732  1.0000
  C   C51       1.0  0.87712  0.37218  0.78668  1.0000
  C   C52       1.0  0.86788  0.87575  0.78668  1.0000
  C   C53       1.0  0.41821  0.38681  0.87198  1.0000
  C   C54       1.0  0.40898  0.89042  0.87197  1.0000
  C   C55       1.0  0.92375  0.38707  0.87125  1.0000
  C   C56       1.0  0.91451  0.89065  0.87125  1.0000
  C   C57       1.0  0.48047  0.38200  0.86767  1.0000
  C   C58       1.0  0.47123  0.88561  0.86766  1.0000
  C   C59       1.0  0.98602  0.38231  0.86692  1.0000
  C   C60       1.0  0.97678  0.88588  0.86690  1.0000
  C   C61       1.0  0.30412  0.37600  0.79184  1.0000
  C   C62       1.0  0.29488  0.87960  0.79184  1.0000
  C   C63       1.0  0.80954  0.37598  0.79142  1.0000
  C   C64       1.0  0.80030  0.87956  0.79143  1.0000
  C   C65       1.0  0.16597  0.41675  0.08364  1.0000
  C   C66       1.0  0.15672  0.92035  0.08360  1.0000
  C   C67       1.0  0.67179  0.41689  0.08361  1.0000
  C   C68       1.0  0.66259  0.92048  0.08360  1.0000
  C   C69       1.0  0.16522  0.42065  0.18385  1.0000
  C   C70       1.0  0.15598  0.92425  0.18384  1.0000
  C   C71       1.0  0.67092  0.42080  0.18378  1.0000
  C   C72       1.0  0.66174  0.92440  0.18378  1.0000
  C   C73       1.0  0.15624  0.36402  0.22493  1.0000
  C   C74       1.0  0.14709  0.86764  0.22490  1.0000
  C   C75       1.0  0.66219  0.36420  0.22497  1.0000
  C   C76       1.0  0.65302  0.86781  0.22499  1.0000
  C   C77       1.0  0.14905  0.30772  0.16468  1.0000
  C   C78       1.0  0.13998  0.81134  0.16473  1.0000
  C   C79       1.0  0.65537  0.30791  0.16484  1.0000
  C   C80       1.0  0.64619  0.81151  0.16487  1.0000
  C   C81       1.0  0.15103  0.30849  0.06607  1.0000
  C   C82       1.0  0.14194  0.81210  0.06612  1.0000
  C   C83       1.0  0.65746  0.30867  0.06627  1.0000
  C   C84       1.0  0.64827  0.81226  0.06629  1.0000
  C   C85       1.0  0.15639  0.36267  0.33126  1.0000
  C   C86       1.0  0.14722  0.86628  0.33128  1.0000
  C   C87       1.0  0.66215  0.36284  0.33126  1.0000
  C   C88       1.0  0.65297  0.86645  0.33128  1.0000
  C   C89       1.0  0.21419  0.37588  0.39597  1.0000
  C   C90       1.0  0.20500  0.87958  0.39603  1.0000
  C   C91       1.0  0.71984  0.37625  0.39624  1.0000
  C   C92       1.0  0.71066  0.87987  0.39627  1.0000
  C   C93       1.0  0.21536  0.37292  0.49499  1.0000
  C   C94       1.0  0.20615  0.87662  0.49504  1.0000
  C   C95       1.0  0.72084  0.37323  0.49521  1.0000
  C   C96       1.0  0.71165  0.87685  0.49524  1.0000
  C   C97       1.0  0.10612  0.34514  0.46932  1.0000
  C   C98       1.0  0.09692  0.84868  0.46929  1.0000
  C   C99       1.0  0.61163  0.34504  0.46900  1.0000
  C   C100      1.0  0.60243  0.84865  0.46899  1.0000
  C   C101      1.0  0.10015  0.34676  0.36843  1.0000
  C   C102      1.0  0.09097  0.85030  0.36840  1.0000
  C   C103      1.0  0.60583  0.34672  0.36814  1.0000
  C   C104      1.0  0.59664  0.85033  0.36814  1.0000
  C   C105      1.0  0.17421  0.48325  0.24323  1.0000
  C   C106      1.0  0.16490  0.98685  0.24319  1.0000
  C   C107      1.0  0.67954  0.48339  0.24304  1.0000
  C   C108      1.0  0.67037  0.98699  0.24303  1.0000
  C   C109      1.0  0.03609  0.33274  0.30425  1.0000
  C   C110      1.0  0.02693  0.83620  0.30417  1.0000
  C   C111      1.0  0.54187  0.33253  0.30370  1.0000
  C   C112      1.0  0.53268  0.83614  0.30369  1.0000
  C   C113      1.0  0.34868  0.03209  0.21854  1.0000
  C   C114      1.0  0.33942  0.53568  0.21855  1.0000
  C   C115      1.0  0.85399  0.03209  0.21851  1.0000
  C   C116      1.0  0.84469  0.53567  0.21851  1.0000
  C   C117      1.0  0.34367  0.46798  0.22110  1.0000
  C   C118      1.0  0.33448  0.97158  0.22114  1.0000
  C   C119      1.0  0.84913  0.46802  0.22108  1.0000
  C   C120      1.0  0.83998  0.97162  0.22107  1.0000
  C   C121      1.0  0.36778  0.44708  0.30899  1.0000
  C   C122      1.0  0.35859  0.95067  0.30898  1.0000
  C   C123      1.0  0.87314  0.44710  0.30897  1.0000
  C   C124      1.0  0.86400  0.95070  0.30896  1.0000
  C   C125      1.0  0.37261  0.38462  0.31163  1.0000
  C   C126      1.0  0.36341  0.88821  0.31162  1.0000
  C   C127      1.0  0.87799  0.38465  0.31160  1.0000
  C   C128      1.0  0.86885  0.88825  0.31162  1.0000
  C   C129      1.0  0.35303  0.34176  0.22665  1.0000
  C   C130      1.0  0.34384  0.84536  0.22664  1.0000
  C   C131      1.0  0.85857  0.34181  0.22661  1.0000
  C   C132      1.0  0.84941  0.84541  0.22661  1.0000
  C   C133      1.0  0.32858  0.36264  0.13900  1.0000
  C   C134      1.0  0.31941  0.86625  0.13898  1.0000
  C   C135      1.0  0.83439  0.36273  0.13885  1.0000
  C   C136      1.0  0.82522  0.86633  0.13885  1.0000
  C   C137      1.0  0.32429  0.42520  0.13613  1.0000
  C   C138      1.0  0.31512  0.92880  0.13612  1.0000
  C   C139      1.0  0.83005  0.42528  0.13598  1.0000
  C   C140      1.0  0.82088  0.92887  0.13598  1.0000
  C   C141      1.0  0.35755  0.27417  0.22990  1.0000
  C   C142      1.0  0.34833  0.77776  0.22989  1.0000
  C   C143      1.0  0.86293  0.27419  0.22995  1.0000
  C   C144      1.0  0.85375  0.77779  0.22996  1.0000
  C   C145      1.0  0.47636  0.16217  0.24131  1.0000
  C   C146      1.0  0.46712  0.66575  0.24131  1.0000
  C   C147      1.0  0.98209  0.16210  0.24155  1.0000
  C   C148      1.0  0.97285  0.66566  0.24155  1.0000
  C   C149      1.0  0.03843  0.15884  0.23712  1.0000
  C   C150      1.0  0.02919  0.66239  0.23712  1.0000
  C   C151      1.0  0.54402  0.15896  0.23644  1.0000
  C   C152      1.0  0.53478  0.66255  0.23640  1.0000
  C   C153      1.0  0.08504  0.17385  0.32161  1.0000
  C   C154      1.0  0.07579  0.67738  0.32160  1.0000
  C   C155      1.0  0.59057  0.17383  0.32101  1.0000
  C   C156      1.0  0.58133  0.67740  0.32101  1.0000
  C   C157      1.0  0.14738  0.16951  0.31716  1.0000
  C   C158      1.0  0.13813  0.67306  0.31717  1.0000
  C   C159      1.0  0.65287  0.16945  0.31660  1.0000
  C   C160      1.0  0.64363  0.67303  0.31659  1.0000
  C   C161      1.0  0.16430  0.14966  0.22830  1.0000
  C   C162      1.0  0.15506  0.65323  0.22830  1.0000
  C   C163      1.0  0.66975  0.14970  0.22767  1.0000
  C   C164      1.0  0.66051  0.65329  0.22766  1.0000
  C   C165      1.0  0.11767  0.13476  0.14374  1.0000
  C   C166      1.0  0.10843  0.63834  0.14370  1.0000
  C   C167      1.0  0.62321  0.13499  0.14302  1.0000
  C   C168      1.0  0.61397  0.63861  0.14300  1.0000
  C   C169      1.0  0.05540  0.13953  0.14807  1.0000
  C   C170      1.0  0.04617  0.64311  0.14807  1.0000
  C   C171      1.0  0.56095  0.13980  0.14733  1.0000
  C   C172      1.0  0.55171  0.64341  0.14730  1.0000
  C   C173      1.0  0.23188  0.14585  0.22356  1.0000
  C   C174      1.0  0.22264  0.64943  0.22350  1.0000
  C   C175      1.0  0.73730  0.14581  0.22310  1.0000
  C   C176      1.0  0.72806  0.64941  0.22314  1.0000
  C   C177      1.0  0.36959  0.10493  0.93138  1.0000
  C   C178      1.0  0.36039  0.60853  0.93138  1.0000
  C   C179      1.0  0.87547  0.10507  0.93136  1.0000
  C   C180      1.0  0.86622  0.60867  0.93130  1.0000
  C   C181      1.0  0.37045  0.10102  0.83120  1.0000
  C   C182      1.0  0.36127  0.60462  0.83120  1.0000
  C   C183      1.0  0.87620  0.10116  0.83115  1.0000
  C   C184      1.0  0.86697  0.60477  0.83114  1.0000
  C   C185      1.0  0.37917  0.15761  0.79000  1.0000
  C   C186      1.0  0.37000  0.66122  0.79002  1.0000
  C   C187      1.0  0.88509  0.15778  0.79004  1.0000
  C   C188      1.0  0.87594  0.66139  0.79006  1.0000
  C   C189      1.0  0.38599  0.21390  0.85013  1.0000
  C   C190      1.0  0.37682  0.71751  0.85015  1.0000
  C   C191      1.0  0.89221  0.21408  0.85027  1.0000
  C   C192      1.0  0.88314  0.71769  0.85032  1.0000
  C   C193      1.0  0.38392  0.21315  0.94871  1.0000
  C   C194      1.0  0.37473  0.71675  0.94870  1.0000
  C   C195      1.0  0.89024  0.21331  0.94888  1.0000
  C   C196      1.0  0.88116  0.71692  0.94890  1.0000
  C   C197      1.0  0.37922  0.15896  0.68371  1.0000
  C   C198      1.0  0.37004  0.66258  0.68373  1.0000
  C   C199      1.0  0.88496  0.15913  0.68371  1.0000
  C   C200      1.0  0.87580  0.66275  0.68373  1.0000
  C   C201      1.0  0.32153  0.14555  0.61872  1.0000
  C   C202      1.0  0.31234  0.64917  0.61875  1.0000
  C   C203      1.0  0.82718  0.14584  0.61896  1.0000
  C   C204      1.0  0.81800  0.64955  0.61900  1.0000
  C   C205      1.0  0.32054  0.14857  0.51975  1.0000
  C   C206      1.0  0.31134  0.65219  0.51978  1.0000
  C   C207      1.0  0.82603  0.14880  0.51995  1.0000
  C   C208      1.0  0.81682  0.65251  0.52001  1.0000
  C   C209      1.0  0.42976  0.17676  0.54600  1.0000
  C   C210      1.0  0.42056  0.68038  0.54599  1.0000
  C   C211      1.0  0.93526  0.17673  0.54570  1.0000
  C   C212      1.0  0.92606  0.68027  0.54566  1.0000
  C   C213      1.0  0.43554  0.17509  0.64685  1.0000
  C   C214      1.0  0.42635  0.67870  0.64685  1.0000
  C   C215      1.0  0.94121  0.17511  0.64658  1.0000
  C   C216      1.0  0.93204  0.67865  0.64655  1.0000
  C   C217      1.0  0.36182  0.03842  0.77190  1.0000
  C   C218      1.0  0.35265  0.54203  0.77195  1.0000
  C   C219      1.0  0.86728  0.03856  0.77179  1.0000
  C   C220      1.0  0.85797  0.54217  0.77175  1.0000
  C   C221      1.0  0.49950  0.18928  0.71130  1.0000
  C   C222      1.0  0.49032  0.69289  0.71128  1.0000
  C   C223      1.0  0.00000  0.18921  0.71082  1.0000
  C   C224      1.0  0.99610  0.69267  0.71070  1.0000
  N   N1        1.0  0.15924  0.36239  0.02580  1.0000
  N   N2        1.0  0.15006  0.86599  0.02590  1.0000
  N   N3        1.0  0.66543  0.36254  0.02598  1.0000
  N   N4        1.0  0.65622  0.86613  0.02599  1.0000
  N   N5        1.0  0.16195  0.35768  0.53142  1.0000
  N   N6        1.0  0.15274  0.86129  0.53143  1.0000
  N   N7        1.0  0.66736  0.35773  0.53135  1.0000
  N   N8        1.0  0.65815  0.86134  0.53136  1.0000
  N   N9        1.0  0.37596  0.15928  0.98900  1.0000
  N   N10       1.0  0.36676  0.66287  0.98901  1.0000
  N   N11       1.0  0.88213  0.15942  0.98909  1.0000
  N   N12       1.0  0.87294  0.66302  0.98910  1.0000
  N   N13       1.0  0.37403  0.16407  0.48360  1.0000
  N   N14       1.0  0.36482  0.66768  0.48364  1.0000
  N   N15       1.0  0.87944  0.16413  0.48356  1.0000
  N   N16       1.0  0.87023  0.66774  0.48357  1.0000
  O   O1        1.0  0.17761  0.45562  0.71475  1.0000
  O   O2        1.0  0.16834  0.95921  0.71475  1.0000
  O   O3        1.0  0.68293  0.45562  0.71471  1.0000
  O   O4        1.0  0.67369  0.95921  0.71471  1.0000
  O   O5        1.0  0.20069  0.47185  0.88040  1.0000
  O   O6        1.0  0.19144  0.97544  0.88046  1.0000
  O   O7        1.0  0.70574  0.47184  0.88045  1.0000
  O   O8        1.0  0.69649  0.97542  0.88045  1.0000
  O   O9        1.0  0.19160  0.28259  0.86640  1.0000
  O   O10       1.0  0.18249  0.78619  0.86640  1.0000
  O   O11       1.0  0.69756  0.28267  0.86650  1.0000
  O   O12       1.0  0.68833  0.78626  0.86649  1.0000
  O   O13       1.0  0.16241  0.26483  0.70150  1.0000
  O   O14       1.0  0.15318  0.76842  0.70152  1.0000
  O   O15       1.0  0.66716  0.26475  0.70100  1.0000
  O   O16       1.0  0.65793  0.76834  0.70169  1.0000
  O   O17       1.0  0.07370  0.35078  0.68890  1.0000
  O   O18       1.0  0.06446  0.85435  0.68892  1.0000
  O   O19       1.0  0.57885  0.35072  0.68873  1.0000
  O   O20       1.0  0.56961  0.85431  0.68870  1.0000
  O   O21       1.0  0.09708  0.36675  0.85456  1.0000
  O   O22       1.0  0.08785  0.87033  0.85455  1.0000
  O   O23       1.0  0.60327  0.36666  0.85431  1.0000
  O   O24       1.0  0.59403  0.87024  0.85431  1.0000
  O   O25       1.0  0.26594  0.36672  0.71045  1.0000
  O   O26       1.0  0.25670  0.87031  0.71045  1.0000
  O   O27       1.0  0.77102  0.36646  0.71040  1.0000
  O   O28       1.0  0.76179  0.87004  0.71041  1.0000
  O   O29       1.0  0.29027  0.38785  0.87571  1.0000
  O   O30       1.0  0.28104  0.89147  0.87571  1.0000
  O   O31       1.0  0.79599  0.38808  0.87550  1.0000
  O   O32       1.0  0.78676  0.89167  0.87550  1.0000
  O   O33       1.0  0.35849  0.06619  0.30028  1.0000
  O   O34       1.0  0.34925  0.56978  0.30028  1.0000
  O   O35       1.0  0.86385  0.06620  0.30024  1.0000
  O   O36       1.0  0.85457  0.56979  0.30024  1.0000
  O   O37       1.0  0.33569  0.04998  0.13454  1.0000
  O   O38       1.0  0.32644  0.55357  0.13454  1.0000
  O   O39       1.0  0.84074  0.04997  0.13453  1.0000
  O   O40       1.0  0.83149  0.55356  0.13453  1.0000
  O   O41       1.0  0.34385  0.23915  0.14850  1.0000
  O   O42       1.0  0.33462  0.74274  0.14849  1.0000
  O   O43       1.0  0.84969  0.23921  0.14851  1.0000
  O   O44       1.0  0.84059  0.74282  0.14850  1.0000
  O   O45       1.0  0.37425  0.25707  0.31330  1.0000
  O   O46       1.0  0.36502  0.76065  0.31300  1.0000
  O   O47       1.0  0.87900  0.25699  0.31347  1.0000
  O   O48       1.0  0.86977  0.76058  0.31349  1.0000
  O   O49       1.0  0.46257  0.17110  0.32626  1.0000
  O   O50       1.0  0.45333  0.67469  0.32626  1.0000
  O   O51       1.0  0.96772  0.17106  0.32607  1.0000
  O   O52       1.0  0.95848  0.67463  0.32606  1.0000
  O   O53       1.0  0.43815  0.15516  0.16068  1.0000
  O   O54       1.0  0.42891  0.65875  0.16068  1.0000
  O   O55       1.0  0.94433  0.15508  0.16040  1.0000
  O   O56       1.0  0.93510  0.65865  0.16043  1.0000
  O   O57       1.0  0.27039  0.15536  0.30458  1.0000
  O   O58       1.0  0.26116  0.65895  0.30450  1.0000
  O   O59       1.0  0.77548  0.15510  0.30454  1.0000
  O   O60       1.0  0.76624  0.65869  0.30454  1.0000
  O   O61       1.0  0.24543  0.13374  0.13949  1.0000
  O   O62       1.0  0.23619  0.63732  0.13949  1.0000
  O   O63       1.0  0.75114  0.13394  0.13928  1.0000
  O   O64       1.0  0.74191  0.63756  0.13928  1.0000
