data_image0
_chemical_formula_structural       Cd8H64C96N16O32
_chemical_formula_sum              "Cd8 H64 C96 N16 O32"
_cell_length_a       12.772
_cell_length_b       15.1
_cell_length_c       19.445
_cell_angle_alpha    90.08
_cell_angle_beta     90.028
_cell_angle_gamma    89.993

_space_group_name_H-M_alt    "P 1"
_space_group_IT_number       1

loop_
  _space_group_symop_operation_xyz
  'x, y, z'

loop_
  _atom_site_type_symbol
  _atom_site_label
  _atom_site_symmetry_multiplicity
  _atom_site_fract_x
  _atom_site_fract_y
  _atom_site_fract_z
  _atom_site_occupancy
  Cd  Cd1       1.0  0.67959  0.76798  0.32955  1.0000
  Cd  Cd2       1.0  0.32050  0.26776  0.17048  1.0000
  Cd  Cd3       1.0  0.82011  0.23227  0.82897  1.0000
  Cd  Cd4       1.0  0.17999  0.73200  0.67104  1.0000
  Cd  Cd5       1.0  0.32037  0.23206  0.67044  1.0000
  Cd  Cd6       1.0  0.67946  0.73229  0.82951  1.0000
  Cd  Cd7       1.0  0.17986  0.76777  0.17100  1.0000
  Cd  Cd8       1.0  0.81997  0.26804  0.32894  1.0000
  H   H1        1.0  0.31413  0.05185  0.15490  1.0000
  H   H2        1.0  0.42256  0.91906  0.18543  1.0000
  H   H3        1.0  0.61962  0.09169  0.30592  1.0000
  H   H4        1.0  0.50567  0.21913  0.26894  1.0000
  H   H5        1.0  0.37687  0.15275  0.03591  1.0000
  H   H6        1.0  0.50338  0.15068  0.93602  1.0000
  H   H7        1.0  0.59325  0.41579  0.99142  1.0000
  H   H8        1.0  0.45960  0.40934  0.08700  1.0000
  H   H9        1.0  0.68601  0.55210  0.34500  1.0000
  H   H10       1.0  0.57739  0.41926  0.31456  1.0000
  H   H11       1.0  0.38040  0.59161  0.19411  1.0000
  H   H12       1.0  0.49449  0.71910  0.23102  1.0000
  H   H13       1.0  0.62325  0.65289  0.46374  1.0000
  H   H14       1.0  0.49675  0.65067  0.56365  1.0000
  H   H15       1.0  0.40653  0.91575  0.50892  1.0000
  H   H16       1.0  0.54016  0.90943  0.41287  1.0000
  H   H17       1.0  0.12361  0.84670  0.53678  1.0000
  H   H18       1.0  0.99639  0.84921  0.43719  1.0000
  H   H19       1.0  0.90673  0.58396  0.49160  1.0000
  H   H20       1.0  0.00000  0.59012  0.58755  1.0000
  H   H21       1.0  0.18651  0.94775  0.65523  1.0000
  H   H22       1.0  0.07797  0.08077  0.68520  1.0000
  H   H23       1.0  0.88014  0.90895  0.80540  1.0000
  H   H24       1.0  0.99438  0.78127  0.76904  1.0000
  H   H25       1.0  0.87658  0.34701  0.96355  1.0000
  H   H26       1.0  0.00000  0.34930  0.06322  1.0000
  H   H27       1.0  0.09305  0.08398  0.00817  1.0000
  H   H28       1.0  0.95921  0.09033  0.91223  1.0000
  H   H29       1.0  0.81358  0.44807  0.84484  1.0000
  H   H30       1.0  0.92196  0.58103  0.81474  1.0000
  H   H31       1.0  0.11977  0.40881  0.69448  1.0000
  H   H32       1.0  0.00000  0.28122  0.73090  1.0000
  H   H33       1.0  0.68584  0.94819  0.84508  1.0000
  H   H34       1.0  0.57742  0.08098  0.81456  1.0000
  H   H35       1.0  0.38035  0.90836  0.69407  1.0000
  H   H36       1.0  0.49430  0.78091  0.73104  1.0000
  H   H37       1.0  0.62306  0.84731  0.96406  1.0000
  H   H38       1.0  0.49656  0.84938  0.06395  1.0000
  H   H39       1.0  0.40676  0.58424  0.00859  1.0000
  H   H40       1.0  0.54039  0.59070  0.91261  1.0000
  H   H41       1.0  0.31396  0.44795  0.65499  1.0000
  H   H42       1.0  0.42259  0.58078  0.68543  1.0000
  H   H43       1.0  0.61957  0.40842  0.80587  1.0000
  H   H44       1.0  0.50547  0.28093  0.76896  1.0000
  H   H45       1.0  0.37670  0.34715  0.53623  1.0000
  H   H46       1.0  0.50321  0.34936  0.43632  1.0000
  H   H47       1.0  0.59347  0.08431  0.49109  1.0000
  H   H48       1.0  0.45983  0.09063  0.58713  1.0000
  H   H49       1.0  0.87637  0.15333  0.46318  1.0000
  H   H50       1.0  0.00000  0.15082  0.56276  1.0000
  H   H51       1.0  0.09322  0.41610  0.50836  1.0000
  H   H52       1.0  0.95923  0.40994  0.41244  1.0000
  H   H53       1.0  0.81346  0.05229  0.34476  1.0000
  H   H54       1.0  0.92200  0.91927  0.31477  1.0000
  H   H55       1.0  0.11983  0.09108  0.19459  1.0000
  H   H56       1.0  0.00000  0.21876  0.23094  1.0000
  H   H57       1.0  0.12343  0.65306  0.03641  1.0000
  H   H58       1.0  0.99639  0.65076  0.93674  1.0000
  H   H59       1.0  0.90686  0.91605  0.99180  1.0000
  H   H60       1.0  0.00000  0.90970  0.08778  1.0000
  H   H61       1.0  0.18639  0.55197  0.15514  1.0000
  H   H62       1.0  0.07801  0.41901  0.18524  1.0000
  H   H63       1.0  0.88019  0.59123  0.30549  1.0000
  H   H64       1.0  0.99425  0.71882  0.26903  1.0000
  C   C1        1.0  0.38351  0.05813  0.18717  1.0000
  C   C2        1.0  0.44390  0.98457  0.20444  1.0000
  C   C3        1.0  0.53082  0.99611  0.24741  1.0000
  C   C4        1.0  0.55375  0.08136  0.27128  1.0000
  C   C5        1.0  0.49069  0.15177  0.25136  1.0000
  C   C6        1.0  0.59545  0.91853  0.27146  1.0000
  C   C7        1.0  0.42660  0.20939  0.02410  1.0000
  C   C8        1.0  0.49609  0.20859  0.96908  1.0000
  C   C9        1.0  0.55905  0.28286  0.95757  1.0000
  C   C10       1.0  0.54550  0.35705  0.99978  1.0000
  C   C11       1.0  0.47329  0.35334  0.05311  1.0000
  C   C12       1.0  0.64541  0.28178  0.90480  1.0000
  C   C13       1.0  0.61660  0.55831  0.31276  1.0000
  C   C14       1.0  0.55612  0.48474  0.29555  1.0000
  C   C15       1.0  0.46917  0.49619  0.25260  1.0000
  C   C16       1.0  0.44628  0.58136  0.22873  1.0000
  C   C17       1.0  0.50944  0.65180  0.24860  1.0000
  C   C18       1.0  0.40448  0.41855  0.22857  1.0000
  C   C19       1.0  0.57345  0.70948  0.47566  1.0000
  C   C20       1.0  0.50396  0.70861  0.53074  1.0000
  C   C21       1.0  0.44092  0.78283  0.54243  1.0000
  C   C22       1.0  0.45436  0.85704  0.50038  1.0000
  C   C23       1.0  0.52658  0.85342  0.44704  1.0000
  C   C24       1.0  0.35457  0.78170  0.59520  1.0000
  C   C25       1.0  0.07373  0.79015  0.52489  1.0000
  C   C26       1.0  0.00387  0.79118  0.46997  1.0000
  C   C27       1.0  0.94085  0.71696  0.45825  1.0000
  C   C28       1.0  0.95455  0.64265  0.50019  1.0000
  C   C29       1.0  0.02704  0.64618  0.55344  1.0000
  C   C30       1.0  0.85427  0.71819  0.40557  1.0000
  C   C31       1.0  0.11701  0.94171  0.68735  1.0000
  C   C32       1.0  0.05657  0.00000  0.70432  1.0000
  C   C33       1.0  0.96937  0.00000  0.74701  1.0000
  C   C34       1.0  0.94625  0.91905  0.77098  1.0000
  C   C35       1.0  0.00946  0.84852  0.75141  1.0000
  C   C36       1.0  0.90465  0.08186  0.77072  1.0000
  C   C37       1.0  0.92637  0.29039  0.97533  1.0000
  C   C38       1.0  0.99614  0.29129  0.03029  1.0000
  C   C39       1.0  0.05907  0.21701  0.04187  1.0000
  C   C40       1.0  0.04530  0.14274  0.99970  1.0000
  C   C41       1.0  0.97291  0.14638  0.94646  1.0000
  C   C42       1.0  0.14562  0.21812  0.09459  1.0000
  C   C43       1.0  0.88305  0.44192  0.81268  1.0000
  C   C44       1.0  0.94338  0.51557  0.79565  1.0000
  C   C45       1.0  0.00000  0.50417  0.75290  1.0000
  C   C46       1.0  0.05369  0.41902  0.72893  1.0000
  C   C47       1.0  0.99059  0.34853  0.74857  1.0000
  C   C48       1.0  0.09518  0.58187  0.72918  1.0000
  C   C49       1.0  0.61646  0.94191  0.81282  1.0000
  C   C50       1.0  0.55609  0.00000  0.79554  1.0000
  C   C51       1.0  0.46914  0.00000  0.75259  1.0000
  C   C52       1.0  0.44623  0.91869  0.72869  1.0000
  C   C53       1.0  0.50928  0.84827  0.74862  1.0000
  C   C54       1.0  0.40453  0.08152  0.72850  1.0000
  C   C55       1.0  0.57335  0.79067  0.97584  1.0000
  C   C56       1.0  0.50385  0.79146  0.03090  1.0000
  C   C57       1.0  0.44094  0.71718  0.04240  1.0000
  C   C58       1.0  0.45448  0.64299  0.00000  1.0000
  C   C59       1.0  0.52670  0.64670  0.94680  1.0000
  C   C60       1.0  0.35456  0.71826  0.09519  1.0000
  C   C61       1.0  0.38337  0.44173  0.68722  1.0000
  C   C62       1.0  0.44386  0.51530  0.70444  1.0000
  C   C63       1.0  0.53080  0.50385  0.74739  1.0000
  C   C64       1.0  0.55369  0.41867  0.77125  1.0000
  C   C65       1.0  0.49053  0.34824  0.75138  1.0000
  C   C66       1.0  0.59549  0.58148  0.77143  1.0000
  C   C67       1.0  0.42651  0.29056  0.52430  1.0000
  C   C68       1.0  0.49601  0.29143  0.46924  1.0000
  C   C69       1.0  0.55905  0.21721  0.45756  1.0000
  C   C70       1.0  0.54562  0.14301  0.49962  1.0000
  C   C71       1.0  0.47340  0.14663  0.55296  1.0000
  C   C72       1.0  0.64540  0.21834  0.40479  1.0000
  C   C73       1.0  0.92624  0.20989  0.47507  1.0000
  C   C74       1.0  0.99611  0.20886  0.52990  1.0000
  C   C75       1.0  0.05912  0.28309  0.54172  1.0000
  C   C76       1.0  0.04540  0.35740  0.49970  1.0000
  C   C77       1.0  0.97291  0.35387  0.44654  1.0000
  C   C78       1.0  0.14570  0.28184  0.59440  1.0000
  C   C79       1.0  0.88296  0.05833  0.31264  1.0000
  C   C80       1.0  0.94340  0.98465  0.29567  1.0000
  C   C81       1.0  0.00000  0.99591  0.25298  1.0000
  C   C82       1.0  0.05372  0.08098  0.22901  1.0000
  C   C83       1.0  0.99051  0.15152  0.24857  1.0000
  C   C84       1.0  0.09532  0.91817  0.22927  1.0000
  C   C85       1.0  0.07362  0.70967  0.02464  1.0000
  C   C86       1.0  0.00385  0.70876  0.96968  1.0000
  C   C87       1.0  0.94090  0.78305  0.95810  1.0000
  C   C88       1.0  0.95463  0.85730  0.00025  1.0000
  C   C89       1.0  0.02703  0.85366  0.05353  1.0000
  C   C90       1.0  0.85434  0.78192  0.90539  1.0000
  C   C91       1.0  0.11692  0.55812  0.18730  1.0000
  C   C92       1.0  0.05659  0.48447  0.20434  1.0000
  C   C93       1.0  0.96940  0.49587  0.24705  1.0000
  C   C94       1.0  0.94627  0.58102  0.27104  1.0000
  C   C95       1.0  0.00937  0.65151  0.25140  1.0000
  C   C96       1.0  0.90478  0.41817  0.27079  1.0000
  N   N1        1.0  0.40654  0.14060  0.20986  1.0000
  N   N2        1.0  0.41617  0.27999  0.06629  1.0000
  N   N3        1.0  0.59363  0.64071  0.29006  1.0000
  N   N4        1.0  0.58378  0.78011  0.43369  1.0000
  N   N5        1.0  0.08431  0.71945  0.56678  1.0000
  N   N6        1.0  0.09387  0.85941  0.71017  1.0000
  N   N7        1.0  0.91576  0.21971  0.93326  1.0000
  N   N8        1.0  0.90622  0.35954  0.78986  1.0000
  N   N9        1.0  0.59344  0.85944  0.79012  1.0000
  N   N10       1.0  0.58379  0.72006  0.93370  1.0000
  N   N11       1.0  0.40634  0.35933  0.70992  1.0000
  N   N12       1.0  0.41619  0.21994  0.56630  1.0000
  N   N13       1.0  0.91565  0.28060  0.43319  1.0000
  N   N14       1.0  0.90610  0.14063  0.28981  1.0000
  N   N15       1.0  0.08421  0.78034  0.06673  1.0000
  N   N16       1.0  0.09374  0.64050  0.21012  1.0000
  O   O1        1.0  0.58204  0.84380  0.24207  1.0000
  O   O2        1.0  0.65708  0.93011  0.32199  1.0000
  O   O3        1.0  0.65012  0.21485  0.86405  1.0000
  O   O4        1.0  0.71109  0.34417  0.90538  1.0000
  O   O5        1.0  0.41795  0.34387  0.25789  1.0000
  O   O6        1.0  0.34278  0.43003  0.17809  1.0000
  O   O7        1.0  0.34997  0.71481  0.63586  1.0000
  O   O8        1.0  0.28883  0.84405  0.59470  1.0000
  O   O9        1.0  0.84869  0.78580  0.36568  1.0000
  O   O10       1.0  0.78939  0.65525  0.40534  1.0000
  O   O11       1.0  0.91994  0.15681  0.74226  1.0000
  O   O12       1.0  0.84105  0.07020  0.82011  1.0000
  O   O13       1.0  0.15121  0.28563  0.13472  1.0000
  O   O14       1.0  0.21053  0.15518  0.09450  1.0000
  O   O15       1.0  0.08012  0.65684  0.75780  1.0000
  O   O16       1.0  0.15856  0.57011  0.67960  1.0000
  O   O17       1.0  0.41793  0.15625  0.75792  1.0000
  O   O18       1.0  0.34288  0.06993  0.67801  1.0000
  O   O19       1.0  0.34986  0.78518  0.13595  1.0000
  O   O20       1.0  0.28889  0.65587  0.09462  1.0000
  O   O21       1.0  0.58202  0.65616  0.74211  1.0000
  O   O22       1.0  0.65719  0.57000  0.82191  1.0000
  O   O23       1.0  0.65000  0.28522  0.36412  1.0000
  O   O24       1.0  0.71115  0.15599  0.40527  1.0000
  O   O25       1.0  0.15129  0.21422  0.63426  1.0000
  O   O26       1.0  0.21056  0.34480  0.59460  1.0000
  O   O27       1.0  0.08003  0.84323  0.25774  1.0000
  O   O28       1.0  0.15891  0.92983  0.17987  1.0000
  O   O29       1.0  0.84877  0.71443  0.86524  1.0000
  O   O30       1.0  0.78941  0.84485  0.90541  1.0000
  O   O31       1.0  0.91986  0.34320  0.24216  1.0000
  O   O32       1.0  0.84137  0.42993  0.32031  1.0000
